Circuit: * Z:\home\ostoja\Elektronika\DS100M06V_linear\simulacije\001_solidna_baza.asc

WARNING: Node N002 is floating.
WARNING: Node N003 is floating.
WARNING: Node N004 is floating.
WARNING: Node N019 is floating.
WARNING: Node N020 is floating.
WARNING: Node N021 is floating.

WARNING: Less than two connections to node 2.5V.  This node is used by V1.
WARNING: Less than two connections to node -2.5V.  This node is used by V2.
WARNING: Less than two connections to node 9V.  This node is used by V4.
WARNING: Less than two connections to node -9V.  This node is used by V6.
Direct Newton iteration for .op point succeeded.
Heightened Def Con from 5.65519e-008 to 5.65519e-008
Heightened Def Con from 5.65519e-008 to 5.65519e-008
Heightened Def Con from 5.65519e-008 +to 5.65519e-008
Heightened Def Con from 9.65515e-008 to 9.65515e-008
Heightened Def Con from 9.65515e-008 to 9.65515e-008
Heightened Def Con from 9.65515e-008 to 9.65515e-008
Heightened Def Con from 1.47219e-007 to 1.47219e-007
Heightened Def Con from 1.47219e-007 to 1.47219e-007
Heightened Def Con from 1.6722e-007 to 1.6722e-007
Heightened Def Con from 1.6722e-007 to 1.6722e-007
Heightened Def Con from 1.6722e-007 to 1.6722e-007
Heightened Def Con from 2.6722e-007 to 2.6722e-007
Heightened Def Con from 3.4722e-007 to 3.4722e-007
Heightened Def Con from 4.4722e-007 to 4.4722e-007
Heightened Def Con from 4.6722e-007 to 4.6722e-007
Heightened Def Con from 4.6722e-007 to 4.6722e-007
Heightened Def Con from 6.2722e-007 to 6.2722e-007
Heightened Def Con from 6.4722e-007 to 6.4722e-007
Heightened Def Con from 7.0722e-007 to 7.0722e-007
Heightened Def Con from 7.0722e-007 to 7.0722e-007
Heightened Def Con from 7.2722e-007 to 7.2722e-007
Heightened Def Con from 7.8722e-007 +++to 7.8722e-007
Heightened Def Con from 8.0722e-007 to 8.0722e-007
Heightened Def Con from 8.8722e-007 to 8.8722e-007
Heightened Def Con from 9.4722e-007 to 9.4722e-007
Heightened Def Con from 9.4722e-007 to 9.4722e-007
Heightened Def Con from 1.00722e-006 to 1.00722e-006
Heightened Def Con from 1.02722e-006 to 1.02722e-006
Heightened Def Con from 1.02722e-006 to 1.02722e-006
Heightened Def Con from 1.08722e-006 to 1.08722e-006
Heightened Def Con from 1.08722e-006 +to 1.08722e-006
Heightened Def Con from 1.08722e-006 to 1.08722e-006
Heightened Def Con from 1.10722e-006 to 1.10722e-006
Heightened Def Con from 1.20722e-006 to 1.20722e-006
Heightened Def Con from 1.26722e-006 to 1.26722e-006
Heightened Def Con from 1.26722e-006 to 1.26722e-006
Heightened Def Con from 1.26722e-006 +to 1.26722e-006
Heightened Def Con from 1.26722e-006 to 1.26722e-006
Heightened Def Con from 1.31655e-006 to 1.31655e-006
Heightened Def Con from 1.36722e-006 to 1.36722e-006
Heightened Def Con from 1.36722e-006 to 1.36722e-006
Heightened Def Con from 1.36722e-006 to 1.36722e-006
Heightened Def Con from 1.38722e-006 to 1.38722e-006
Heightened Def Con from 1.38722e-006 to 1.38722e-006
Heightened Def Con from 1.54722e-006 to 1.54722e-006
Heightened Def Con from 1.64722e-006 to 1.64722e-006
Heightened Def Con from 1.82722e-006 to 1.82722e-006
Heightened Def Con from 1.84722e-006 to 1.84722e-006
Heightened Def Con from 1.92722e-006 to 1.92722e-006
Heightened Def Con from 1.98722e-006 to 1.98722e-006
Heightened Def Con from 1.98722e-006 to 1.98722e-006
Heightened Def Con from 1.98722e-006 to 1.98722e-006
Heightened Def Con from 2.00722e-006 to 2.00722e-006
Heightened Def Con from 2.02722e-006 to 2.02722e-006
Heightened Def Con from 2.04722e-006 to 2.04722e-006
Heightened Def Con from 2.04722e-006 ++to 2.04722e-006
Heightened Def Con from 2.06722e-006 to 2.06722e-006
Heightened Def Con from 2.06722e-006 to 2.06722e-006
Heightened Def Con from 6.24722e-006 to 6.24722e-006

Date: Mon Oct 07 01:20:43 2024
Total elapsed time: 0.740 seconds.

tnom = 27
temp = 27
method = modified trap
totiter = 112719
traniter = 112681
tranpoints = 24474
accept = 17899
rejected = 6642
matrix size = 94
fillins = 96
solver = Normal
Thread vector: 4.8/3.1[4] 1.6/1.6[1] 1.1/1.3[1] 0.2/0.7[1]  2592/500
Matrix Compiler1: 8.14 KB object code size  1.1/0.5/[0.4]
Matrix Compiler2: 9.30 KB object code size  0.5/0.6/[0.4]

