Missing ".ends" statement in file "SMV1255-079LF.lib"
Missing ".ends" statement in file "Z:\home\ostoja\Elektronika\DS100M06V_linear\simulacije\SMV1255-079LF.lib"
Circuit: * Z:\home\ostoja\Elektronika\DS100M06V_linear\simulacije\102_varicap_only.asc

Limiting rise time of source v3 to 1e-007
Limiting fall time of source v3 to 1e-007
WARNING: Node MID is floating.

WARNING: Less than two connections to node 2.5V.  This node is used by V1.
WARNING: Less than two connections to node -2.5V.  This node is used by V2.
WARNING: Less than two connections to node 9V.  This node is used by V4.
WARNING: Less than two connections to node -9V.  This node is used by V6.
WARNING: Less than two connections to node -5V.  This node is used by V8.
Direct Newton iteration failed to find .op point.  (Use ".option noopiter" to skip.)
Starting Gmin stepping
Gmin = 10
Gmin = 1.07374
vernier = 0.5
vernier = 0.666667
Gmin = 0.375229
vernier = 0.888888
vernier = 1
Gmin = 0.0567082
Gmin = 0.006089
vernier = 0.5
Gmin = 0.00113507
vernier = 0.25
vernier = 0.125
vernier = 0.0625
vernier = 0.03125
Gmin = 0.00106002
vernier = 0.015625
vernier = 0.0208333
Gmin = 0.00102348
vernier = 0.0277778
vernier = 0.037037
Gmin = 0.000957803
vernier = 0.0493827
Gmin = 0.000860238
vernier = 0.0658435
vernier = 0.0877914
Gmin = 0.000721871
vernier = 0.117055
vernier = 0.156073
Gmin = 0.000547507
vernier = 0.208098
Gmin = 0.000350869
vernier = 0.277464
vernier = 0.369952
Gmin = 0.000171045
vernier = 0.493269
vernier = 0.657691
Gmin = 5.60707e-005
vernier = 0.328846
vernier = 0.164423
Gmin = 2.70698e-005
vernier = 0.0822114
vernier = 0.0411057
vernier = 0.0205529
vernier = 0.0102764
vernier = 0.00513821
vernier = 0.00256911
vernier = 0.00128455
vernier = 0.000642277
vernier = 0.000481708
Gmin = 0
Gmin = 0
Gmin stepping failed

Starting source stepping with srcstepmethod=0
Source Step = 3.0303%
vernier = 0.25
Source Step = 7.57576%
Source Step = 8.66477%
vernier = 0.00390625
Source Step = 8.7358%
Source Step = 8.85417%
Source Step = 8.97254%
Source Step = 9.09091%
Source Step = 9.20928%
vernier = 0.00585938
Source Step = 9.38092%
Source Step = 9.55848%
Source Step = 9.73603%
Source Step = 9.91359%
Source Step = 10.0911%
vernier = 0.00878906
Source Step = 10.3397%
Source Step = 10.6061%
Source Step = 10.8724%
Source Step = 11.1387%
Source Step = 11.4051%
vernier = 0.0131836
Source Step = 11.7646%
Source Step = 12.1641%
Source Step = 12.254%
Source Step = 12.3539%
Source Step = 12.4538%
Source Step = 12.5536%
Source Step = 12.6535%
vernier = 0.00494385
Source Step = 12.7834%
Source Step = 12.9332%
Source Step = 13.083%
Source Step = 13.2328%
Source Step = 13.3826%
vernier = 0.00741577
Source Step = 13.5699%
Source Step = 13.7946%
Source Step = 14.0193%
Source Step = 14.244%
Source Step = 14.4688%
vernier = 0.0111237
Source Step = 14.7384%
Source Step = 15.0755%
Source Step = 15.4126%
Source Step = 15.7497%
Source Step = 16.0867%
vernier = 0.0166855
Source Step = 16.4744%
Source Step = 16.98%
Source Step = 17.4856%
Source Step = 17.9912%
Source Step = 18.4969%
vernier = 0.0250282
Source Step = 19.053%
Source Step = 19.8115%
Source Step = 20.5699%
Source Step = 21.3283%
Source Step = 22.0868%
vernier = 0.0375423
Source Step = 22.8831%
Source Step = 24.0208%
Source Step = 25.1584%
Source Step = 26.2961%
Source Step = 27.4337%
Source Step = 28.5714%
vernier = 0.0563135
Source Step = 30.2778%
Source Step = 31.9843%
Source Step = 33.6908%
Source Step = 35.3972%
Source Step = 37.1037%
vernier = 0.0140784
Source Step = 36.9544%
Source Step = 36.9811%
Source Step = 37.0077%
Source Step = 37.0344%
Source Step = 37.061%
vernier = 0.00131985
Source Step = 37.0904%
Source Step = 37.1304%
Source Step = 37.1704%
Source Step = 37.2104%
Source Step = 37.2504%
vernier = 0.00197977
Source Step = 37.2924%
Source Step = 37.3523%
Source Step = 37.4123%
Source Step = 37.4723%
Source Step = 37.5323%
Source Step = 37.5923%
vernier = 0.00296966
Source Step = 37.6823%
Source Step = 37.7723%
Source Step = 37.8623%
Source Step = 37.9523%
Source Step = 38.0423%
vernier = 0.00445449
Source Step = 38.1728%
Source Step = 38.3077%
Source Step = 38.4427%
Source Step = 38.5777%
Source Step = 38.7127%
vernier = 0.00668173
Source Step = 38.9017%
Source Step = 39.1041%
Source Step = 39.3066%
Source Step = 39.5091%
Source Step = 39.7116%
vernier = 0.0100226
Source Step = 39.9849%
Source Step = 40.2886%
Source Step = 40.5924%
Source Step = 40.8961%
Source Step = 41.1998%
vernier = 0.0150339
Source Step = 41.5946%
Source Step = 42.0502%
Source Step = 42.5058%
Source Step = 42.9613%
Source Step = 43.4169%
vernier = 0.0225508
Source Step = 43.9864%
Source Step = 44.6697%
Source Step = 45.3531%
Source Step = 46.0364%
Source Step = 46.7198%
vernier = 0.0338263
Source Step = 47.5398%
Source Step = 48.5649%
Source Step = 49.5899%
Source Step = 50.6149%
Source Step = 51.64%
vernier = 0.0507394
Source Step = 52.8188%
Source Step = 54.3563%
Source Step = 55.8939%
Source Step = 57.4315%
Source Step = 58.969%
vernier = 0.0761091
Source Step = 60.6603%
Source Step = 62.9667%
Source Step = 65.273%
Source Step = 67.5793%
Source Step = 69.8857%
vernier = 0.114164
Source Step = 72.3073%
Source Step = 75.7668%
Source Step = 79.2263%
Source Step = 82.6858%
Source Step = 86.1453%
Source Step = 89.6048%
vernier = 0.171245
Source Step = 94.7941%
Source Step = 99.9833%
Source Step = 100%
Starting source stepping with srcstepmethod=1
Source Step = 3.0303%
Source Step = 33.3333%
Source Step = 63.6364%
Source Step = 93.9394%
Source Step = 100%
Source Step = 100%
Source Step = 99.0059%
Source Step = 99.0355%
Source stepping failed

Pseudo Transient succeeded in finding the operating point at 2.18206 s.
.step d=0.1
Heightened Def Con from 0.00977773 to 0.00977773
