Circuit: * Z:\home\ostoja\Elektronika\DS100M06V_linear\simulacije\400_output_offset.asc

WARNING: Less than two connections to node 2.5V.  This node is used by V1.
WARNING: Less than two connections to node -2.5V.  This node is used by V2.
WARNING: Less than two connections to node 9V.  This node is used by V4.
WARNING: Less than two connections to node -9V.  This node is used by V6.
Direct Newton iteration for .op point succeeded.
.step rf=200
Heightened Def Con from 1.06398e-008 +++++to 1.06398e-008
Heightened Def Con from 1.06398e-008 to 1.06398e-008
Heightened Def Con from 1.15162e-008 +to 1.15162e-008
Heightened Def Con from 1.15162e-008 to 1.15162e-008
Heightened Def Con from 2.10158e-008 to 2.10158e-008
Heightened Def Con from 6.01581e-008 to 6.01581e-008
Heightened Def Con from 6.01581e-008 +to 6.01581e-008
Heightened Def Con from 6.01581e-008 ++to 6.01581e-008
Heightened Def Con from 6.01581e-008 to 6.01581e-008
Heightened Def Con from 6.01581e-008 to 6.01581e-008
Heightened Def Con from 6.01581e-008 to 6.01581e-008
Heightened Def Con from 6.01581e-008 to 6.01581e-008
Heightened Def Con from 6.01581e-008 ++++++++++to 6.01581e-008
Heightened Def Con from 6.01581e-008 +to 6.01581e-008
Heightened Def Con from 8.01426e-008 to 8.01426e-008
Heightened Def Con from 9.15163e-008 to 9.15163e-008
.step rf=1000
.step rf=2000

Date: Mon Oct 07 01:16:37 2024
Total elapsed time: 0.299 seconds.

tnom = 27
temp = 27
method = modified trap
totiter = 10505
traniter = 10478
tranpoints = 1713
accept = 1094
rejected = 648
matrix size = 122
fillins = 67
solver = Normal
Matrix Compiler1: 8.25 KB object code size  1.2/0.5/[0.4]
Matrix Compiler2: 11.15 KB object code size  0.6/1.0/[0.4]

