Circuit: * Z:\home\ostoja\Elektronika\git\DS100M06V\simulacije\701_capacitance_multiplier.asc

WARNING: Specified period is not longer than the sum of Trise, Tfall, and Ton for v3.  Increasing period to 1.001e-006
WARNING: Specified period is not longer than the sum of Trise, Tfall, and Ton for v1.  Increasing period to 2.0001e-005
Direct Newton iteration for .op point succeeded.

Date: Tue Oct 29 09:31:39 2024
Total elapsed time: 78.469 seconds.

tnom = 27
temp = 27
method = modified trap
totiter = 23567129
traniter = 23567106
tranpoints = 11706853
accept = 10067969
rejected = 1638884
matrix size = 16
fillins = 5
solver = Normal
Matrix Compiler1: 1.35 KB object code size  0.5/0.2/[0.2]
Matrix Compiler2: off  [0.2]/0.3/0.4

