Circuit: * Z:\home\ostoja\Elektronika\git\DS100M06V\simulacije\701_capacitance_multiplier.asc

WARNING: Specified period is not longer than the sum of Trise, Tfall, and Ton for v3.  Increasing period to 1.001e-006
WARNING: Specified period is not longer than the sum of Trise, Tfall, and Ton for v1.  Increasing period to 2.0001e-005
WARNING: Less than two connections to node VEE_IN.  This node is used by B1.
Direct Newton iteration for .op point succeeded.

Date: Tue Oct 29 10:01:16 2024
Total elapsed time: 17.663 seconds.

tnom = 27
temp = 27
method = modified trap
totiter = 4490561
traniter = 4490531
tranpoints = 2235935
accept = 1799639
rejected = 436296
matrix size = 21
fillins = 5
solver = Normal
Matrix Compiler1: 1.47 KB object code size  0.7/0.3/[0.2]
Matrix Compiler2: off  [0.3]/0.3/0.4

