Circuit: * Z:\home\ostoja\Elektronika\DS100M06V_linear\simulacije\701_capacitance_multiplier.asc

WARNING: Specified period is not longer than the sum of Trise, Tfall, and Ton for v3.  Increasing period to 1.001e-006
WARNING: Specified period is not longer than the sum of Trise, Tfall, and Ton for v1.  Increasing period to 2.0001e-005
Direct Newton iteration for .op point succeeded.
Heightened Def Con from 0.134429 to 0.134429

Date: Tue Oct 29 20:27:26 2024
Total elapsed time: 35.982 seconds.

tnom = 27
temp = 27
method = modified trap
totiter = 14978764
traniter = 14978739
tranpoints = 7445035
accept = 6115790
rejected = 1329246
matrix size = 31
fillins = 5
solver = Normal
Matrix Compiler1: 2.29 KB object code size  0.4/0.2/[0.2]
Matrix Compiler2: 2.59 KB object code size  0.3/0.3/[0.2]

