Circuit: * Z:\home\ostoja\Elektronika\Projekti\DP_5V\simulacije\800_PSRR.asc

Limiting rise time of source v9 to 5e-007
Limiting fall time of source v9 to 5e-007
Limiting rise time of source v7 to 5e-007
Limiting fall time of source v7 to 5e-007
WARNING: Node N002 is floating.
WARNING: Node N003 is floating.
WARNING: Node N004 is floating.
WARNING: Node N019 is floating.
WARNING: Node N020 is floating.
WARNING: Node N021 is floating.

WARNING: Less than two connections to node 2.5V.  This node is used by V1.
WARNING: Less than two connections to node -2.5V.  This node is used by V2.
WARNING: Less than two connections to node 9V.  This node is used by V4.
WARNING: Less than two connections to node -9V.  This node is used by V6.
Direct Newton iteration for .op point succeeded.
Heightened Def Con from 7.84468e-010 to 7.84468e-010
Heightened Def Con from 7.84468e-010 to 7.84468e-010
Heightened Def Con from 7.84468e-010 to 7.84468e-010
Heightened Def Con from 7.84468e-010 +++to 7.84468e-010
Heightened Def Con from 7.84468e-010 to 7.84468e-010
Heightened Def Con from 7.84468e-010 to 7.84468e-010
Heightened Def Con from 7.84468e-010 to 7.84468e-010
Heightened Def Con from 7.84468e-010 to 7.84468e-010
Heightened Def Con from 7.84468e-010 to 7.84468e-010
Heightened Def Con from 7.84469e-010 to 7.84469e-010
Heightened Def Con from 7.84469e-010 +to 7.84469e-010
Heightened Def Con from 7.84469e-010 to 7.84469e-010
Heightened Def Con from 7.84469e-010 to 7.84469e-010
Heightened Def Con from 7.84469e-010 to 7.84469e-010
Heightened Def Con from 7.84469e-010 to 7.84469e-010
Heightened Def Con from 7.84469e-010 to 7.84469e-010
Heightened Def Con from 7.84469e-010 to 7.84469e-010
Heightened Def Con from 7.84469e-010 to 7.84469e-010
Heightened Def Con from 7.84469e-010 to 7.84469e-010
Heightened Def Con from 7.84469e-010 ++++to 7.8447e-010
Heightened Def Con from 7.8447e-010 to 7.8447e-010
Heightened Def Con from 7.8447e-010 ++to 7.8447e-010
Heightened Def Con from 7.8447e-010 to 7.8447e-010
Heightened Def Con from 7.8447e-010 +to 7.8447e-010
Heightened Def Con from 7.8447e-010 to 7.8447e-010
Heightened Def Con from 7.8447e-010 ++++to 7.8447e-010
Heightened Def Con from 7.8447e-010 to 7.8447e-010
Heightened Def Con from 7.8447e-010 to 7.8447e-010
Heightened Def Con from 7.8447e-010 to 7.8447e-010
Heightened Def Con from 7.8447e-010 to 7.8447e-010
Heightened Def Con from 7.8447e-010 to 7.8447e-010
Heightened Def Con from 7.8447e-010 +to 7.8447e-010
Heightened Def Con from 7.8447e-010 to 7.8447e-010
Heightened Def Con from 7.8447e-010 to 7.8447e-010
Heightened Def Con from 7.8447e-010 to 7.8447e-010
Heightened Def Con from 7.8447e-010 to 7.8447e-010
Heightened Def Con from 7.8447e-010 to 7.8447e-010
Heightened Def Con from 7.8447e-010 +to 7.8447e-010
Heightened Def Con from 7.8447e-010 to 7.8447e-010
Heightened Def Con from 7.8447e-010 +to 7.8447e-010
Heightened Def Con from 7.8447e-010 +++to 7.8447e-010
Heightened Def Con from 7.8447e-010 ++++to 7.8447e-010
Heightened Def Con from 7.8447e-010 +to 7.8447e-010
Heightened Def Con from 7.8447e-010 to 7.8447e-010
Heightened Def Con from 7.8447e-010 to 7.8447e-010
Heightened Def Con from 7.8447e-010 ++to 7.8447e-010
Heightened Def Con from 7.8447e-010 +++to 7.8447e-010
Heightened Def Con from 7.8447e-010 to 7.8447e-010
Heightened Def Con from 7.8447e-010 to 7.8447e-010
Heightened Def Con from 7.8447e-010 to 7.8447e-010
Heightened Def Con from 7.8447e-010 ++to 7.8447e-010
Heightened Def Con from 7.8447e-010 to 7.8447e-010
Heightened Def Con from 7.8447e-010 to 7.8447e-010
Heightened Def Con from 7.8447e-010 +to 7.8447e-010
Heightened Def Con from 7.8447e-010 to 7.8447e-010
Heightened Def Con from 7.8447e-010 to 7.8447e-010
Heightened Def Con from 7.8447e-010 ++to 7.8447e-010
Heightened Def Con from 7.8447e-010 ++to 7.8447e-010
Heightened Def Con from 7.8447e-010 +to 7.8447e-010
Heightened Def Con from 7.8447e-010 to 7.8447e-010
Heightened Def Con from 7.8447e-010 to 7.8447e-010
Heightened Def Con from 7.8447e-010 to 7.8447e-010
Heightened Def Con from 7.8447e-010 to 7.8447e-010
Heightened Def Con from 7.8447e-010 to 7.8447e-010
Heightened Def Con from 7.8447e-010 to 7.8447e-010
Heightened Def Con from 7.8447e-010 +to 7.8447e-010
Heightened Def Con from 7.8447e-010 ++++to 7.8447e-010
Heightened Def Con from 7.8447e-010 to 7.8447e-010
Heightened Def Con from 7.84471e-010 to 7.84471e-010
Heightened Def Con from 7.84471e-010 to 7.84471e-010
Heightened Def Con from 7.84471e-010 +++to 7.84471e-010
Heightened Def Con from 7.84471e-010 +to 7.84471e-010
Heightened Def Con from 7.84471e-010 to 7.84471e-010
Heightened Def Con from 7.84471e-010 to 7.84471e-010
Heightened Def Con from 7.84471e-010 +to 7.84471e-010
Heightened Def Con from 7.84471e-010 ++to 7.84471e-010
Heightened Def Con from 7.84471e-010 to 7.84471e-010
Heightened Def Con from 7.84471e-010 to 7.84471e-010
Heightened Def Con from 7.84471e-010 to 7.84471e-010
Heightened Def Con from 7.84471e-010 to 7.84471e-010
Heightened Def Con from 7.84471e-010 to 7.84471e-010
Heightened Def Con from 7.84471e-010 to 7.84471e-010
Heightened Def Con from 7.84471e-010 ++to 7.84471e-010
Heightened Def Con from 7.84471e-010 to 7.84471e-010
Heightened Def Con from 7.84471e-010 to 7.84471e-010
Heightened Def Con from 7.84471e-010 +to 7.84471e-010
Heightened Def Con from 7.84471e-010 to 7.84471e-010
Heightened Def Con from 7.84471e-010 to 7.84471e-010
Heightened Def Con from 7.84471e-010 ++to 7.84471e-010
Heightened Def Con from 7.84471e-010 to 7.84471e-010
Heightened Def Con from 7.84471e-010 +to 7.84471e-010
Heightened Def Con from 7.84471e-010 to 7.84471e-010
Heightened Def Con from 7.84471e-010 ++to 7.84471e-010
Heightened Def Con from 7.84471e-010 to 7.84471e-010
Heightened Def Con from 7.84471e-010 +++to 7.84471e-010
Heightened Def Con from 7.84471e-010 to 7.84471e-010
Heightened Def Con from 7.84471e-010 to 7.84471e-010
Heightened Def Con from 7.84471e-010 ++to 7.84471e-010
Heightened Def Con from 7.84471e-010 to 7.84471e-010
Heightened Def Con from 7.84471e-010 to 7.84471e-010
Heightened Def Con from 7.84471e-010 +to 7.84471e-010
Heightened Def Con from 7.84471e-010 +++to 7.84471e-010
Heightened Def Con from 7.84471e-010 +to 7.84471e-010
Heightened Def Con from 7.84471e-010 +++to 7.84471e-010
Heightened Def Con from 7.84471e-010 to 7.84471e-010
Heightened Def Con from 7.84471e-010 to 7.84471e-010
Heightened Def Con from 7.84471e-010 to 7.84471e-010
Heightened Def Con from 7.84471e-010 to 7.84471e-010
Heightened Def Con from 7.84471e-010 to 7.84471e-010
Heightened Def Con from 7.84471e-010 to 7.84471e-010
Heightened Def Con from 7.84471e-010 ++to 7.84471e-010
Heightened Def Con from 7.84471e-010 to 7.84471e-010
Heightened Def Con from 7.84471e-010 to 7.84471e-010
Heightened Def Con from 7.84471e-010 to 7.84471e-010
Heightened Def Con from 7.84471e-010 to 7.84471e-010
Heightened Def Con from 7.84471e-010 +to 7.84471e-010
Heightened Def Con from 7.84471e-010 to 7.84471e-010
Heightened Def Con from 7.84471e-010 to 7.84471e-010
Heightened Def Con from 7.84471e-010 to 7.84471e-010
Heightened Def Con from 7.84471e-010 +to 7.84471e-010
Heightened Def Con from 7.84471e-010 to 7.84471e-010
Heightened Def Con from 7.84471e-010 +++to 7.84471e-010
Heightened Def Con from 7.84471e-010 +to 7.84471e-010
Heightened Def Con from 7.84471e-010 ++++to 7.84471e-010
Heightened Def Con from 7.84471e-010 to 7.84475e-010
Heightened Def Con from 1.74153e-008 to 1.74153e-008
Heightened Def Con from 1.74153e-008 to 1.74153e-008
Heightened Def Con from 1.74153e-008 to 1.74153e-008
Heightened Def Con from 1.74153e-008 to 1.74153e-008
Heightened Def Con from 1.74153e-008 +to 1.74153e-008
Heightened Def Con from 1.74153e-008 ++to 1.74153e-008
Heightened Def Con from 1.74153e-008 to 1.74153e-008
Heightened Def Con from 1.74153e-008 ++++to 1.74153e-008
Heightened Def Con from 1.74153e-008 +++++to 1.74153e-008
Heightened Def Con from 1.74153e-008 to 1.74153e-008
Heightened Def Con from 1.74153e-008 +++++to 1.74153e-008
Heightened Def Con from 5.7449e-008 to 5.7449e-008
Heightened Def Con from 5.7449e-008 ++++to 5.7449e-008
Heightened Def Con from 5.7449e-008 to 5.7449e-008
Heightened Def Con from 5.7449e-008 +to 5.7449e-008
Heightened Def Con from 5.7449e-008 +to 5.7449e-008
Heightened Def Con from 5.7449e-008 +to 5.7449e-008
Heightened Def Con from 5.7449e-008 to 5.7449e-008
Heightened Def Con from 5.7449e-008 to 5.7449e-008
Heightened Def Con from 5.7449e-008 ++to 5.7449e-008
Heightened Def Con from 5.7449e-008 +to 5.7449e-008
Heightened Def Con from 5.7449e-008 to 5.7449e-008
Heightened Def Con from 5.7449e-008 to 5.7449e-008
Heightened Def Con from 5.7449e-008 to 5.7449e-008
Heightened Def Con from 5.7449e-008 +to 5.7449e-008
Heightened Def Con from 5.7449e-008 to 5.7449e-008
Heightened Def Con from 5.7449e-008 to 5.7449e-008
Heightened Def Con from 5.7449e-008 to 5.7449e-008
Heightened Def Con from 5.7449e-008 to 5.7449e-008
Heightened Def Con from 5.7449e-008 +to 5.7449e-008
Heightened Def Con from 5.7449e-008 to 5.7449e-008
Heightened Def Con from 5.7449e-008 ++to 5.7449e-008
Heightened Def Con from 5.7449e-008 +to 5.7449e-008
Heightened Def Con from 5.7449e-008 ++to 5.7449e-008
Heightened Def Con from 5.7449e-008 to 5.7449e-008
Heightened Def Con from 5.7449e-008 to 5.7449e-008
Heightened Def Con from 5.7449e-008 +to 5.7449e-008
Heightened Def Con from 5.7449e-008 +to 5.7449e-008
Heightened Def Con from 5.7449e-008 to 5.7449e-008
Heightened Def Con from 5.7449e-008 +++to 5.7449e-008
Heightened Def Con from 5.7449e-008 to 5.7449e-008
Heightened Def Con from 5.7449e-008 +to 5.7449e-008
Heightened Def Con from 5.7449e-008 ++++to 5.7449e-008
Heightened Def Con from 5.7449e-008 ++to 5.7449e-008
Heightened Def Con from 6.73079e-008 to 6.73079e-008
Heightened Def Con from 6.78247e-008 to 6.78247e-008
Heightened Def Con from 6.78247e-008 +to 6.78247e-008
Heightened Def Con from 6.78247e-008 +to 6.78247e-008
Heightened Def Con from 6.78247e-008 to 6.78247e-008
Heightened Def Con from 8.7309e-008 to 8.7309e-008
Heightened Def Con from 8.7309e-008 to 8.7309e-008
Heightened Def Con from 8.7309e-008 to 8.7309e-008
Heightened Def Con from 8.7309e-008 to 8.7309e-008
Heightened Def Con from 8.7309e-008 to 8.7309e-008
Heightened Def Con from 8.7309e-008 ++to 8.7309e-008
Heightened Def Con from 8.7309e-008 to 8.7309e-008
Heightened Def Con from 8.7309e-008 to 8.7309e-008
Heightened Def Con from 8.7309e-008 to 8.7309e-008
Heightened Def Con from 8.7309e-008 +to 8.7309e-008
Heightened Def Con from 8.7309e-008 +to 8.7309e-008
Heightened Def Con from 8.7309e-008 to 8.7309e-008
Heightened Def Con from 8.7309e-008 to 8.7309e-008
Heightened Def Con from 8.7309e-008 to 8.7309e-008
Heightened Def Con from 8.7309e-008 to 8.7309e-008
Heightened Def Con from 8.7309e-008 to 8.7309e-008
Heightened Def Con from 8.7309e-008 to 8.7309e-008
Heightened Def Con from 8.7309e-008 +to 8.7309e-008
Heightened Def Con from 8.7309e-008 to 8.7309e-008
Heightened Def Con from 8.7309e-008 to 8.7309e-008
Heightened Def Con from 8.7309e-008 +to 8.7309e-008
Heightened Def Con from 8.7309e-008 to 8.7309e-008
Heightened Def Con from 8.7309e-008 to 8.7309e-008
Heightened Def Con from 8.7309e-008 +to 8.7309e-008
Heightened Def Con from 8.7309e-008 to 8.7309e-008
Heightened Def Con from 8.7309e-008 to 8.7309e-008
Heightened Def Con from 8.7309e-008 ++to 8.7309e-008
Heightened Def Con from 8.7309e-008 +to 8.7309e-008
Heightened Def Con from 8.7309e-008 ++++to 8.7309e-008
Heightened Def Con from 8.7309e-008 +++++++++to 8.7309e-008
Heightened Def Con from 8.7309e-008 to 8.7309e-008
Heightened Def Con from 1.07297e-007 to 1.07297e-007
Heightened Def Con from 1.17418e-007 to 1.17418e-007
Heightened Def Con from 1.27376e-007 to 1.27376e-007
Heightened Def Con from 1.47304e-007 to 1.47304e-007
Heightened Def Con from 1.47304e-007 ++to 1.47304e-007
Heightened Def Con from 1.47304e-007 to 1.47304e-007
Heightened Def Con from 1.47304e-007 to 1.47304e-007
Heightened Def Con from 1.47304e-007 to 1.47304e-007
Heightened Def Con from 1.47304e-007 +to 1.47304e-007
Heightened Def Con from 1.47304e-007 +++++++to 1.47304e-007
Heightened Def Con from 1.47304e-007 to 1.47304e-007
Heightened Def Con from 1.87306e-007 to 1.87306e-007
Heightened Def Con from 1.87306e-007 ++to 1.87306e-007
Heightened Def Con from 1.87306e-007 to 1.87306e-007
Heightened Def Con from 1.87306e-007 +to 1.87306e-007
Heightened Def Con from 1.87306e-007 to 1.87306e-007
Heightened Def Con from 1.87306e-007 to 1.87306e-007
Heightened Def Con from 1.87306e-007 to 1.87306e-007
Heightened Def Con from 1.87306e-007 +to 1.87306e-007
Heightened Def Con from 1.87306e-007 to 1.87306e-007
Heightened Def Con from 1.87306e-007 to 1.87306e-007
Heightened Def Con from 1.87306e-007 to 1.87306e-007
Heightened Def Con from 1.87306e-007 +to 1.87306e-007
Heightened Def Con from 1.87306e-007 to 1.87306e-007
Heightened Def Con from 1.87306e-007 to 1.87306e-007
Heightened Def Con from 1.87306e-007 to 1.87306e-007
Heightened Def Con from 1.87306e-007 to 1.87306e-007
Heightened Def Con from 1.87306e-007 to 1.87306e-007
Heightened Def Con from 1.87306e-007 to 1.87306e-007
Heightened Def Con from 1.87306e-007 to 1.87306e-007
Heightened Def Con from 1.87306e-007 to 1.87306e-007
Heightened Def Con from 1.87306e-007 to 1.87306e-007
Heightened Def Con from 1.87306e-007 to 1.87306e-007
Heightened Def Con from 1.87306e-007 +++to 1.87306e-007
Heightened Def Con from 1.87306e-007 +++++to 1.87306e-007
Heightened Def Con from 1.87306e-007 to 1.87306e-007
Heightened Def Con from 1.87306e-007 to 1.87306e-007
Heightened Def Con from 1.87306e-007 to 1.87306e-007
Heightened Def Con from 1.87306e-007 to 1.87306e-007
Heightened Def Con from 1.87306e-007 ++++++++to 1.87306e-007
Heightened Def Con from 1.87306e-007 to 1.87306e-007
Heightened Def Con from 2.57454e-007 to 2.57454e-007
Heightened Def Con from 2.57454e-007 to 2.57454e-007
Heightened Def Con from 2.57454e-007 +to 2.57454e-007
Heightened Def Con from 2.57454e-007 to 2.57454e-007
Heightened Def Con from 2.57454e-007 ++to 2.57454e-007
Heightened Def Con from 2.57454e-007 +to 2.57454e-007
Heightened Def Con from 2.57454e-007 to 2.57454e-007
Heightened Def Con from 2.57454e-007 to 2.57454e-007
Heightened Def Con from 2.57454e-007 to 2.57454e-007
Heightened Def Con from 2.57454e-007 +to 2.57454e-007
Heightened Def Con from 2.57454e-007 to 2.57454e-007
Heightened Def Con from 2.57454e-007 +to 2.57454e-007
Heightened Def Con from 2.57454e-007 +to 2.57454e-007
Heightened Def Con from 2.57454e-007 +++++to 2.57454e-007
Heightened Def Con from 2.97423e-007 to 2.97423e-007
Heightened Def Con from 2.97423e-007 to 2.97423e-007
Heightened Def Con from 2.97423e-007 to 2.97423e-007
Heightened Def Con from 2.97423e-007 to 2.97423e-007
Heightened Def Con from 2.97423e-007 +++to 2.97423e-007
Heightened Def Con from 3.77444e-007 +to 3.77444e-007
Heightened Def Con from 3.77444e-007 to 3.77444e-007
Heightened Def Con from 3.77444e-007 to 3.77444e-007
Heightened Def Con from 3.77444e-007 +to 3.77444e-007
Heightened Def Con from 3.77444e-007 to 3.77444e-007
Heightened Def Con from 3.77444e-007 to 3.77444e-007
Heightened Def Con from 3.77444e-007 +++to 3.77444e-007
Heightened Def Con from 3.77444e-007 +to 3.77444e-007
Heightened Def Con from 3.77444e-007 ++++to 3.77444e-007
Heightened Def Con from 3.77444e-007 to 3.77444e-007
Heightened Def Con from 3.77444e-007 +to 3.77444e-007
Heightened Def Con from 3.77444e-007 +to 3.77444e-007
Heightened Def Con from 3.77444e-007 +to 3.77444e-007
Heightened Def Con from 3.77444e-007 to 3.77444e-007
Heightened Def Con from 3.77444e-007 to 3.77444e-007
Heightened Def Con from 3.77444e-007 to 3.77444e-007
Heightened Def Con from 3.77444e-007 to 3.77444e-007
Heightened Def Con from 3.77444e-007 +to 3.77444e-007
Heightened Def Con from 3.77444e-007 to 3.77444e-007
Heightened Def Con from 3.77444e-007 to 3.77444e-007
Heightened Def Con from 3.77444e-007 ++to 3.77444e-007
Heightened Def Con from 3.77444e-007 to 3.77444e-007
Heightened Def Con from 3.77444e-007 to 3.77444e-007
Heightened Def Con from 3.77444e-007 ++to 3.77444e-007
Heightened Def Con from 3.77444e-007 +to 3.77444e-007
Heightened Def Con from 3.77444e-007 ++++to 3.77444e-007
Heightened Def Con from 3.77444e-007 to 3.77444e-007
Heightened Def Con from 3.77444e-007 to 3.77444e-007
Heightened Def Con from 3.77444e-007 +to 3.77444e-007
Heightened Def Con from 3.77444e-007 to 3.77444e-007
Heightened Def Con from 3.77444e-007 ++to 3.77444e-007
Heightened Def Con from 3.77444e-007 to 3.77444e-007
Heightened Def Con from 3.77444e-007 to 3.77444e-007
Heightened Def Con from 3.77444e-007 ++to 3.77444e-007
Heightened Def Con from 3.77444e-007 to 3.77444e-007
Heightened Def Con from 3.77444e-007 to 3.77444e-007
Heightened Def Con from 3.77444e-007 +to 3.77444e-007
Heightened Def Con from 3.77444e-007 +to 3.77444e-007
Heightened Def Con from 3.77444e-007 +to 3.77444e-007
Heightened Def Con from 3.77444e-007 to 3.77444e-007
Heightened Def Con from 3.77444e-007 ++++to 3.77444e-007
Heightened Def Con from 3.77444e-007 to 3.77444e-007
Heightened Def Con from 3.77444e-007 +++++to 3.77444e-007
Heightened Def Con from 4.07495e-007 ++to 4.07495e-007
Heightened Def Con from 4.07495e-007 to 4.07495e-007
Heightened Def Con from 4.17425e-007 ++++to 4.17425e-007
Heightened Def Con from 4.17425e-007 to 4.17425e-007
Heightened Def Con from 4.19648e-007 to 4.19648e-007
Heightened Def Con from 4.19648e-007 to 4.19648e-007
Heightened Def Con from 4.19648e-007 ++++to 4.19648e-007
Heightened Def Con from 4.19648e-007 to 4.19648e-007
Heightened Def Con from 4.47299e-007 to 4.47299e-007
Heightened Def Con from 4.47299e-007 to 4.47299e-007
Heightened Def Con from 4.47299e-007 +to 4.47299e-007
Heightened Def Con from 4.47299e-007 to 4.47299e-007
Heightened Def Con from 4.47299e-007 to 4.47299e-007
Heightened Def Con from 4.47299e-007 to 4.47299e-007
Heightened Def Con from 4.47299e-007 +++++++++to 4.47299e-007
Heightened Def Con from 4.47299e-007 to 4.47299e-007
Heightened Def Con from 5.07291e-007 ++to 5.07291e-007
Heightened Def Con from 5.07291e-007 ++to 5.07291e-007
Heightened Def Con from 5.07291e-007 to 5.07291e-007
Heightened Def Con from 5.07291e-007 to 5.07291e-007
Heightened Def Con from 5.07291e-007 to 5.07291e-007
Heightened Def Con from 5.07291e-007 to 5.07291e-007
Heightened Def Con from 5.07291e-007 to 5.07291e-007
Heightened Def Con from 5.07291e-007 to 5.07291e-007
Heightened Def Con from 5.07291e-007 to 5.07291e-007
Heightened Def Con from 5.07291e-007 to 5.07291e-007
Heightened Def Con from 5.07291e-007 +to 5.07291e-007
Heightened Def Con from 5.07291e-007 to 5.07291e-007
Heightened Def Con from 5.07291e-007 to 5.07291e-007
Heightened Def Con from 5.07291e-007 to 5.07291e-007
Heightened Def Con from 5.07291e-007 to 5.07291e-007
Heightened Def Con from 5.07291e-007 ++to 5.07291e-007
Heightened Def Con from 5.07291e-007 ++++to 5.07291e-007
Heightened Def Con from 5.07291e-007 +++++to 5.07291e-007
Heightened Def Con from 5.07291e-007 to 5.07291e-007
Heightened Def Con from 5.07291e-007 +to 5.07291e-007
Heightened Def Con from 5.07291e-007 ++to 5.07291e-007
Heightened Def Con from 5.07291e-007 +to 5.07291e-007
Heightened Def Con from 5.07291e-007 to 5.07291e-007
Heightened Def Con from 5.07291e-007 to 5.07291e-007
Heightened Def Con from 5.07291e-007 ++++++++++++to 5.07291e-007
Heightened Def Con from 5.07291e-007 +++++++++++++to 5.07291e-007
Heightened Def Con from 5.07291e-007 to 5.07291e-007
Heightened Def Con from 5.19644e-007 to 5.19644e-007
Heightened Def Con from 5.19644e-007 to 5.19644e-007
Heightened Def Con from 5.27378e-007 to 5.27378e-007
Heightened Def Con from 6.17424e-007 to 6.17424e-007
Heightened Def Con from 6.17424e-007 to 6.17424e-007
Heightened Def Con from 6.17424e-007 to 6.17424e-007
Heightened Def Con from 6.17424e-007 to 6.17424e-007
Heightened Def Con from 6.17424e-007 to 6.17424e-007
Heightened Def Con from 6.17424e-007 to 6.17424e-007
Heightened Def Con from 6.17424e-007 ++++to 6.17424e-007
Heightened Def Con from 6.17424e-007 to 6.17424e-007
Heightened Def Con from 6.17424e-007 to 6.17424e-007
Heightened Def Con from 6.17424e-007 to 6.17424e-007
Heightened Def Con from 6.17424e-007 +to 6.17424e-007
Heightened Def Con from 6.17424e-007 to 6.17424e-007
Heightened Def Con from 6.17424e-007 to 6.17424e-007
Heightened Def Con from 6.17424e-007 to 6.17424e-007
Heightened Def Con from 6.17424e-007 ++to 6.17424e-007
Heightened Def Con from 6.17424e-007 to 6.17424e-007
Heightened Def Con from 6.17424e-007 ++to 6.17424e-007
Heightened Def Con from 6.17424e-007 to 6.17424e-007
Heightened Def Con from 6.17424e-007 +++++to 6.17424e-007
Heightened Def Con from 6.17424e-007 ++to 6.17424e-007
Heightened Def Con from 6.17424e-007 to 6.17424e-007
Heightened Def Con from 6.17424e-007 ++to 6.17424e-007
Heightened Def Con from 6.17424e-007 +++++to 6.17424e-007
Heightened Def Con from 6.19648e-007 +++++to 6.19648e-007
Heightened Def Con from 6.19648e-007 to 6.19648e-007
Heightened Def Con from 6.27293e-007 to 6.27293e-007
Heightened Def Con from 6.27293e-007 to 6.27293e-007
Heightened Def Con from 6.27293e-007 ++to 6.27293e-007
Heightened Def Con from 6.27293e-007 to 6.27293e-007
Heightened Def Con from 6.27293e-007 to 6.27293e-007
Heightened Def Con from 6.27293e-007 to 6.27293e-007
Heightened Def Con from 6.27293e-007 to 6.27293e-007
Heightened Def Con from 6.27293e-007 to 6.27293e-007
Heightened Def Con from 6.27293e-007 ++++++++++++++++to 6.27293e-007
Heightened Def Con from 6.27293e-007 to 6.27297e-007
Heightened Def Con from 6.27379e-007 ++++to 6.27379e-007
Heightened Def Con from 6.27379e-007 ++++to 6.27379e-007
Heightened Def Con from 6.27379e-007 to 6.27379e-007
Heightened Def Con from 6.673e-007 to 6.673e-007
Heightened Def Con from 6.673e-007 to 6.673e-007
Heightened Def Con from 6.87774e-007 to 6.87774e-007
Heightened Def Con from 7.27378e-007 ++++to 7.27378e-007
Heightened Def Con from 7.27378e-007 to 7.27378e-007
Heightened Def Con from 7.27378e-007 to 7.27378e-007
Heightened Def Con from 7.27378e-007 to 7.27378e-007
Heightened Def Con from 7.77444e-007 to 7.77444e-007
Heightened Def Con from 7.97426e-007 to 7.97426e-007
Heightened Def Con from 7.97426e-007 to 7.97426e-007
Heightened Def Con from 7.97426e-007 to 7.97426e-007
Heightened Def Con from 7.97426e-007 ++to 7.97426e-007
Heightened Def Con from 7.97426e-007 to 7.97426e-007
Heightened Def Con from 7.97426e-007 to 7.97426e-007
Heightened Def Con from 7.97426e-007 +++to 7.97426e-007
Heightened Def Con from 7.97426e-007 ++++to 7.97426e-007
Heightened Def Con from 7.97426e-007 +++to 7.97426e-007
Heightened Def Con from 7.97426e-007 to 7.97426e-007
Heightened Def Con from 7.97426e-007 ++++to 7.97426e-007
Heightened Def Con from 7.97426e-007 ++to 7.97426e-007
Heightened Def Con from 7.97426e-007 to 7.97426e-007
Heightened Def Con from 7.97426e-007 +to 7.97426e-007
Heightened Def Con from 7.97426e-007 +++++to 7.97426e-007
Heightened Def Con from 8.27379e-007 to 8.27379e-007
Heightened Def Con from 8.27379e-007 to 8.27379e-007
Heightened Def Con from 8.27379e-007 to 8.27379e-007
Heightened Def Con from 8.47302e-007 to 8.47302e-007
Heightened Def Con from 8.673e-007 to 8.673e-007
Heightened Def Con from 8.673e-007 +to 8.673e-007
Heightened Def Con from 8.673e-007 ++to 8.673e-007
Heightened Def Con from 8.673e-007 to 8.673e-007
Heightened Def Con from 8.673e-007 to 8.673e-007
Heightened Def Con from 8.673e-007 to 8.673e-007
Heightened Def Con from 8.673e-007 to 8.673e-007
Heightened Def Con from 8.673e-007 to 8.673e-007
Heightened Def Con from 8.673e-007 to 8.673e-007
Heightened Def Con from 8.673e-007 to 8.673e-007
Heightened Def Con from 8.673e-007 ++++to 8.673e-007
Heightened Def Con from 8.673e-007 to 8.673e-007
Heightened Def Con from 8.673e-007 ++to 8.673e-007
Heightened Def Con from 8.673e-007 to 8.673e-007
Heightened Def Con from 8.673e-007 +to 8.673e-007
Heightened Def Con from 8.673e-007 to 8.673e-007
Heightened Def Con from 8.673e-007 +++to 8.673e-007
Heightened Def Con from 8.673e-007 to 8.673e-007
Heightened Def Con from 8.673e-007 ++to 8.673e-007
Heightened Def Con from 8.673e-007 to 8.673e-007
Heightened Def Con from 8.673e-007 to 8.673e-007
Heightened Def Con from 8.673e-007 to 8.673e-007
Heightened Def Con from 8.673e-007 to 8.673e-007
Heightened Def Con from 8.673e-007 to 8.673e-007
Heightened Def Con from 8.673e-007 to 8.673e-007
Heightened Def Con from 8.673e-007 ++to 8.673e-007
Heightened Def Con from 8.673e-007 to 8.673e-007
Heightened Def Con from 8.673e-007 to 8.673e-007
Heightened Def Con from 8.673e-007 +to 8.673e-007
Heightened Def Con from 8.673e-007 ++to 8.673e-007
Heightened Def Con from 8.673e-007 to 8.673e-007
Heightened Def Con from 8.673e-007 +to 8.673e-007
Heightened Def Con from 8.673e-007 to 8.673e-007
Heightened Def Con from 8.673e-007 +to 8.673e-007
Heightened Def Con from 8.673e-007 to 8.673e-007
Heightened Def Con from 8.673e-007 to 8.673e-007
Heightened Def Con from 8.673e-007 to 8.673e-007
Heightened Def Con from 8.673e-007 to 8.673e-007
Heightened Def Con from 8.673e-007 ++++++++to 8.673e-007
Heightened Def Con from 8.87774e-007 to 8.87774e-007
Heightened Def Con from 9.473e-007 to 9.473e-007
Heightened Def Con from 9.673e-007 to 9.673e-007
Heightened Def Con from 9.673e-007 to 9.673e-007
Heightened Def Con from 9.87774e-007 +to 9.87774e-007
Heightened Def Con from 9.87774e-007 to 9.87774e-007
Heightened Def Con from 9.87774e-007 to 9.87774e-007
Heightened Def Con from 1.07744e-006 to 1.07744e-006
Heightened Def Con from 1.07744e-006 +++++to 1.07744e-006
Heightened Def Con from 1.07744e-006 to 1.07744e-006
Heightened Def Con from 1.07744e-006 to 1.07744e-006
Heightened Def Con from 1.07744e-006 to 1.07744e-006
Heightened Def Con from 1.07744e-006 to 1.07744e-006
Heightened Def Con from 1.07744e-006 to 1.07744e-006
Heightened Def Con from 1.07744e-006 to 1.07744e-006
Heightened Def Con from 1.07744e-006 ++++to 1.07744e-006
Heightened Def Con from 1.10729e-006 to 1.10729e-006
Heightened Def Con from 1.10729e-006 ++to 1.10729e-006
Heightened Def Con from 1.10729e-006 to 1.10729e-006
Heightened Def Con from 1.10729e-006 to 1.10729e-006
Heightened Def Con from 1.10729e-006 +to 1.10729e-006
Heightened Def Con from 1.10729e-006 to 1.10729e-006
Heightened Def Con from 1.10729e-006 +++++++++to 1.10729e-006
Heightened Def Con from 1.10729e-006 to 1.10729e-006
Heightened Def Con from 1.10749e-006 to 1.10749e-006
Heightened Def Con from 1.10749e-006 to 1.10749e-006
Heightened Def Con from 1.10749e-006 ++to 1.10749e-006
Heightened Def Con from 1.10749e-006 +to 1.10749e-006
Heightened Def Con from 1.10749e-006 to 1.10749e-006
Heightened Def Con from 1.10749e-006 +to 1.10749e-006
Heightened Def Con from 1.10749e-006 +to 1.10749e-006
Heightened Def Con from 1.10749e-006 +to 1.10749e-006
Heightened Def Con from 1.10749e-006 ++to 1.10749e-006
Heightened Def Con from 1.10749e-006 to 1.10749e-006
Heightened Def Con from 1.10749e-006 to 1.10749e-006
Heightened Def Con from 1.10749e-006 to 1.10749e-006
Heightened Def Con from 1.10749e-006 +++to 1.10749e-006
Heightened Def Con from 1.10749e-006 +to 1.10749e-006
Heightened Def Con from 1.10749e-006 ++to 1.10749e-006
Heightened Def Con from 1.10749e-006 to 1.10749e-006
Heightened Def Con from 1.10749e-006 ++++++++to 1.10749e-006
Heightened Def Con from 1.10749e-006 +++++to 1.10749e-006
Heightened Def Con from 1.12729e-006 to 1.12729e-006
Heightened Def Con from 1.12729e-006 to 1.12729e-006
Heightened Def Con from 1.12738e-006 to 1.12738e-006
Heightened Def Con from 1.1673e-006 to 1.1673e-006
Heightened Def Con from 1.1673e-006 +++to 1.1673e-006
Heightened Def Con from 1.1673e-006 +to 1.1673e-006
Heightened Def Con from 1.1673e-006 to 1.1673e-006
Heightened Def Con from 1.1673e-006 to 1.1673e-006
Heightened Def Con from 1.1673e-006 to 1.1673e-006
Heightened Def Con from 1.1673e-006 to 1.1673e-006
Heightened Def Con from 1.1673e-006 to 1.1673e-006
Heightened Def Con from 1.1673e-006 +to 1.1673e-006
Heightened Def Con from 1.1673e-006 to 1.1673e-006
Heightened Def Con from 1.1673e-006 to 1.1673e-006
Heightened Def Con from 1.1673e-006 to 1.1673e-006
Heightened Def Con from 1.1673e-006 +to 1.1673e-006
Heightened Def Con from 1.1673e-006 to 1.1673e-006
Heightened Def Con from 1.1673e-006 to 1.1673e-006
Heightened Def Con from 1.1673e-006 to 1.1673e-006
Heightened Def Con from 1.1673e-006 ++to 1.1673e-006
Heightened Def Con from 1.1673e-006 +to 1.1673e-006
Heightened Def Con from 1.1673e-006 to 1.1673e-006
Heightened Def Con from 1.1673e-006 +++++++to 1.1673e-006
Heightened Def Con from 1.1673e-006 to 1.1673e-006
Heightened Def Con from 1.1673e-006 to 1.1673e-006
Heightened Def Con from 1.1673e-006 to 1.1673e-006
Heightened Def Con from 1.1673e-006 to 1.1673e-006
Heightened Def Con from 1.1673e-006 to 1.1673e-006
Heightened Def Con from 1.1673e-006 to 1.1673e-006
Heightened Def Con from 1.1673e-006 +++++++to 1.1673e-006
Heightened Def Con from 1.1673e-006 to 1.1673e-006
Heightened Def Con from 1.22729e-006 to 1.22729e-006
Heightened Def Con from 1.22738e-006 to 1.22738e-006
Heightened Def Con from 1.2473e-006 to 1.2473e-006
Heightened Def Con from 1.2673e-006 to 1.2673e-006
Heightened Def Con from 1.28777e-006 to 1.28777e-006
Heightened Def Con from 1.28777e-006 to 1.28777e-006
Heightened Def Con from 1.31742e-006 to 1.31742e-006
Heightened Def Con from 1.31742e-006 to 1.31742e-006
Heightened Def Con from 1.32729e-006 to 1.32729e-006
Heightened Def Con from 1.32729e-006 to 1.32729e-006
Heightened Def Con from 1.32729e-006 to 1.32729e-006
Heightened Def Con from 1.32729e-006 to 1.32729e-006
Heightened Def Con from 1.32729e-006 to 1.32729e-006
Heightened Def Con from 1.32729e-006 +to 1.32729e-006
Heightened Def Con from 1.32729e-006 to 1.32729e-006
Heightened Def Con from 1.32729e-006 to 1.32729e-006
Heightened Def Con from 1.32729e-006 to 1.32729e-006
Heightened Def Con from 1.32729e-006 to 1.32729e-006
Heightened Def Con from 1.32729e-006 +to 1.32729e-006
Heightened Def Con from 1.32729e-006 ++to 1.32729e-006
Heightened Def Con from 1.32729e-006 to 1.32729e-006
Heightened Def Con from 1.32729e-006 to 1.32729e-006
Heightened Def Con from 1.32729e-006 to 1.32729e-006
Heightened Def Con from 1.32729e-006 to 1.32729e-006
Heightened Def Con from 1.32729e-006 +to 1.32729e-006
Heightened Def Con from 1.32729e-006 +to 1.32729e-006
Heightened Def Con from 1.32729e-006 +to 1.32729e-006
Heightened Def Con from 1.32729e-006 to 1.32729e-006
Heightened Def Con from 1.32729e-006 to 1.32729e-006
Heightened Def Con from 1.32729e-006 ++to 1.32729e-006
Heightened Def Con from 1.32729e-006 to 1.32729e-006
Heightened Def Con from 1.32729e-006 ++to 1.32729e-006
Heightened Def Con from 1.32729e-006 to 1.32729e-006
Heightened Def Con from 1.32729e-006 ++to 1.32729e-006
Heightened Def Con from 1.32729e-006 to 1.32729e-006
Heightened Def Con from 1.32729e-006 ++to 1.32729e-006
Heightened Def Con from 1.32729e-006 to 1.32729e-006
Heightened Def Con from 1.32729e-006 to 1.32729e-006
Heightened Def Con from 1.32729e-006 to 1.32729e-006
Heightened Def Con from 1.32729e-006 to 1.32729e-006
Heightened Def Con from 1.32729e-006 to 1.32729e-006
Heightened Def Con from 1.32729e-006 ++to 1.32729e-006
Heightened Def Con from 1.32729e-006 to 1.32729e-006
Heightened Def Con from 1.32729e-006 +to 1.32729e-006
Heightened Def Con from 1.32729e-006 ++++++++++++++++to 1.32729e-006
Heightened Def Con from 1.3673e-006 to 1.3673e-006
Heightened Def Con from 1.41742e-006 ++to 1.41742e-006
Heightened Def Con from 1.41742e-006 +to 1.41742e-006
Heightened Def Con from 1.41742e-006 +to 1.41742e-006
Heightened Def Con from 1.41742e-006 +to 1.41742e-006
Heightened Def Con from 1.41742e-006 to 1.41742e-006
Heightened Def Con from 1.41742e-006 to 1.41742e-006
Heightened Def Con from 1.41742e-006 +to 1.41742e-006
Heightened Def Con from 1.41742e-006 ++++to 1.41742e-006
Heightened Def Con from 1.41742e-006 ++++to 1.41742e-006
Heightened Def Con from 1.41742e-006 +++++to 1.41742e-006
Heightened Def Con from 1.41742e-006 to 1.41742e-006
Heightened Def Con from 1.41742e-006 ++to 1.41742e-006
Heightened Def Con from 1.41742e-006 +to 1.41742e-006
Heightened Def Con from 1.41742e-006 to 1.41742e-006
Heightened Def Con from 1.41742e-006 to 1.41742e-006
Heightened Def Con from 1.41742e-006 to 1.41742e-006
Heightened Def Con from 1.41742e-006 to 1.41742e-006
Heightened Def Con from 1.41742e-006 to 1.41742e-006
Heightened Def Con from 1.41742e-006 to 1.41742e-006
Heightened Def Con from 1.41742e-006 +++to 1.41742e-006
Heightened Def Con from 1.41742e-006 ++to 1.41742e-006
Heightened Def Con from 1.41742e-006 to 1.41742e-006
Heightened Def Con from 1.41742e-006 to 1.41742e-006
Heightened Def Con from 1.41742e-006 ++++to 1.41742e-006
Heightened Def Con from 1.41742e-006 ++++to 1.41742e-006
Heightened Def Con from 1.41742e-006 to 1.41742e-006
Heightened Def Con from 1.42729e-006 to 1.42729e-006
Heightened Def Con from 1.42729e-006 ++to 1.42729e-006
Heightened Def Con from 1.42729e-006 to 1.42729e-006
Heightened Def Con from 1.42729e-006 +to 1.42729e-006
Heightened Def Con from 1.42729e-006 to 1.42729e-006
Heightened Def Con from 1.42729e-006 to 1.42729e-006
Heightened Def Con from 1.42729e-006 to 1.42729e-006
Heightened Def Con from 1.42729e-006 +to 1.42729e-006
Heightened Def Con from 1.42729e-006 to 1.42729e-006
Heightened Def Con from 1.42729e-006 ++++++++++++++++to 1.42729e-006
Heightened Def Con from 1.42738e-006 to 1.42738e-006
Heightened Def Con from 1.42738e-006 to 1.42738e-006
Heightened Def Con from 1.42738e-006 to 1.42738e-006
Heightened Def Con from 1.42738e-006 to 1.42738e-006
Heightened Def Con from 1.46783e-006 to 1.46783e-006
Heightened Def Con from 1.46783e-006 to 1.46783e-006
Heightened Def Con from 1.46783e-006 +++++to 1.46783e-006
Heightened Def Con from 1.46783e-006 to 1.46783e-006
Heightened Def Con from 1.47744e-006 to 1.47744e-006
Heightened Def Con from 1.47744e-006 to 1.47744e-006
Heightened Def Con from 1.47744e-006 +to 1.47744e-006
Heightened Def Con from 1.47744e-006 +to 1.47744e-006
Heightened Def Con from 1.47744e-006 to 1.47744e-006
Heightened Def Con from 1.47744e-006 to 1.47744e-006
Heightened Def Con from 1.47744e-006 to 1.47744e-006
Heightened Def Con from 1.47744e-006 to 1.47744e-006
Heightened Def Con from 1.47744e-006 +to 1.47744e-006
Heightened Def Con from 1.47744e-006 ++to 1.47744e-006
Heightened Def Con from 1.47744e-006 +to 1.47744e-006
Heightened Def Con from 1.47744e-006 to 1.47744e-006
Heightened Def Con from 1.47744e-006 to 1.47744e-006
Heightened Def Con from 1.47744e-006 +++to 1.47744e-006
Heightened Def Con from 1.47744e-006 to 1.47744e-006
Heightened Def Con from 1.47744e-006 to 1.47744e-006
Heightened Def Con from 1.47744e-006 to 1.47744e-006
Heightened Def Con from 1.47744e-006 to 1.47744e-006
Heightened Def Con from 1.47744e-006 to 1.47744e-006
Heightened Def Con from 1.47744e-006 to 1.47744e-006
Heightened Def Con from 1.47744e-006 +to 1.47744e-006
Heightened Def Con from 1.47744e-006 to 1.47744e-006
Heightened Def Con from 1.47744e-006 +++to 1.47744e-006
Heightened Def Con from 1.47744e-006 to 1.47744e-006
Heightened Def Con from 1.47744e-006 to 1.47744e-006
Heightened Def Con from 1.47744e-006 to 1.47744e-006
Heightened Def Con from 1.47744e-006 to 1.47744e-006
Heightened Def Con from 1.47744e-006 to 1.47744e-006
Heightened Def Con from 1.47744e-006 to 1.47744e-006
Heightened Def Con from 1.47744e-006 +to 1.47744e-006
Heightened Def Con from 1.47744e-006 ++to 1.47744e-006
Heightened Def Con from 1.47744e-006 +++++to 1.47744e-006
Heightened Def Con from 1.4873e-006 to 1.4873e-006
Heightened Def Con from 1.4873e-006 to 1.4873e-006
Heightened Def Con from 1.4873e-006 +to 1.4873e-006
Heightened Def Con from 1.4873e-006 to 1.4873e-006
Heightened Def Con from 1.4873e-006 to 1.4873e-006
Heightened Def Con from 1.4873e-006 to 1.4873e-006
Heightened Def Con from 1.4873e-006 to 1.4873e-006
Heightened Def Con from 1.4873e-006 to 1.4873e-006
Heightened Def Con from 1.4873e-006 to 1.4873e-006
Heightened Def Con from 1.4873e-006 to 1.4873e-006
Heightened Def Con from 1.4873e-006 +to 1.4873e-006
Heightened Def Con from 1.4873e-006 to 1.4873e-006
Heightened Def Con from 1.4873e-006 ++to 1.4873e-006
Heightened Def Con from 1.4873e-006 to 1.4873e-006
Heightened Def Con from 1.4873e-006 to 1.4873e-006
Heightened Def Con from 1.4873e-006 to 1.4873e-006
Heightened Def Con from 1.4873e-006 to 1.4873e-006
Heightened Def Con from 1.4873e-006 to 1.4873e-006
Heightened Def Con from 1.4873e-006 to 1.4873e-006
Heightened Def Con from 1.4873e-006 +to 1.4873e-006
Heightened Def Con from 1.4873e-006 ++to 1.4873e-006
Heightened Def Con from 1.4873e-006 +to 1.4873e-006
Heightened Def Con from 1.4873e-006 to 1.4873e-006
Heightened Def Con from 1.4873e-006 to 1.4873e-006
Heightened Def Con from 1.4873e-006 to 1.4873e-006
Heightened Def Con from 1.4873e-006 to 1.4873e-006
Heightened Def Con from 1.4873e-006 to 1.4873e-006
Heightened Def Con from 1.4873e-006 to 1.4873e-006
Heightened Def Con from 1.4873e-006 to 1.4873e-006
Heightened Def Con from 1.4873e-006 to 1.4873e-006
Heightened Def Con from 1.4873e-006 to 1.4873e-006
Heightened Def Con from 1.4873e-006 to 1.4873e-006
Heightened Def Con from 1.4873e-006 to 1.4873e-006
Heightened Def Con from 1.4873e-006 +to 1.4873e-006
Heightened Def Con from 1.4873e-006 to 1.4873e-006
Heightened Def Con from 1.4873e-006 ++++++to 1.4873e-006
Heightened Def Con from 1.4873e-006 to 1.4873e-006
Heightened Def Con from 1.4873e-006 to 1.4873e-006
Heightened Def Con from 1.4873e-006 to 1.4873e-006
Heightened Def Con from 1.4873e-006 to 1.4873e-006
Heightened Def Con from 1.4873e-006 to 1.4873e-006
Heightened Def Con from 1.4873e-006 +to 1.4873e-006
Heightened Def Con from 1.4873e-006 +to 1.4873e-006
Heightened Def Con from 1.4873e-006 ++to 1.4873e-006
Heightened Def Con from 1.4873e-006 +to 1.4873e-006
Heightened Def Con from 1.4873e-006 to 1.4873e-006
Heightened Def Con from 1.4873e-006 to 1.4873e-006
Heightened Def Con from 1.4873e-006 to 1.4873e-006
Heightened Def Con from 1.4873e-006 to 1.4873e-006
Heightened Def Con from 1.4873e-006 to 1.4873e-006
Heightened Def Con from 1.4873e-006 to 1.4873e-006
Heightened Def Con from 1.4873e-006 to 1.4873e-006
Heightened Def Con from 1.4873e-006 to 1.4873e-006
Heightened Def Con from 1.4873e-006 ++to 1.4873e-006
Heightened Def Con from 1.4873e-006 to 1.4873e-006
Heightened Def Con from 1.4873e-006 to 1.4873e-006
Heightened Def Con from 1.4873e-006 to 1.4873e-006
Heightened Def Con from 1.4873e-006 to 1.4873e-006
Heightened Def Con from 1.4873e-006 +++to 1.4873e-006
Heightened Def Con from 1.4873e-006 to 1.4873e-006
Heightened Def Con from 1.4873e-006 to 1.4873e-006
Heightened Def Con from 1.4873e-006 to 1.4873e-006
Heightened Def Con from 1.4873e-006 to 1.4873e-006
Heightened Def Con from 1.4873e-006 +++to 1.4873e-006
Heightened Def Con from 1.4873e-006 +++to 1.4873e-006
Heightened Def Con from 1.4873e-006 to 1.4873e-006
Heightened Def Con from 1.4873e-006 ++to 1.4873e-006
Heightened Def Con from 1.4873e-006 to 1.4873e-006
Heightened Def Con from 1.4873e-006 to 1.4873e-006
Heightened Def Con from 1.4873e-006 to 1.4873e-006
Heightened Def Con from 1.4873e-006 to 1.4873e-006
Heightened Def Con from 1.4873e-006 to 1.4873e-006
Heightened Def Con from 1.4873e-006 +++++++++to 1.4873e-006
Heightened Def Con from 1.49941e-006 to 1.49941e-006
Heightened Def Con from 1.50729e-006 to 1.50729e-006
Heightened Def Con from 1.50729e-006 to 1.50729e-006
Heightened Def Con from 1.50729e-006 to 1.50729e-006
Heightened Def Con from 1.50729e-006 to 1.50729e-006
Heightened Def Con from 1.50729e-006 to 1.50729e-006
Heightened Def Con from 1.50729e-006 to 1.50729e-006
Heightened Def Con from 1.50729e-006 to 1.50729e-006
Heightened Def Con from 1.50729e-006 ++to 1.50729e-006
Heightened Def Con from 1.50729e-006 ++++++++++++to 1.50729e-006
Heightened Def Con from 1.50729e-006 to 1.50729e-006
Heightened Def Con from 1.50749e-006 to 1.50749e-006
Heightened Def Con from 1.5473e-006 to 1.5473e-006
Heightened Def Con from 1.5473e-006 to 1.5473e-006
Heightened Def Con from 1.5473e-006 +++++++++to 1.5473e-006
Heightened Def Con from 1.5473e-006 to 1.5473e-006
Heightened Def Con from 1.5673e-006 to 1.5673e-006
Heightened Def Con from 1.5673e-006 to 1.5673e-006
Heightened Def Con from 1.5673e-006 to 1.5673e-006
Heightened Def Con from 1.5673e-006 to 1.5673e-006
Heightened Def Con from 1.5673e-006 to 1.5673e-006
Heightened Def Con from 1.5673e-006 to 1.5673e-006
Heightened Def Con from 1.5673e-006 ++to 1.5673e-006
Heightened Def Con from 1.5673e-006 +to 1.5673e-006
Heightened Def Con from 1.5673e-006 to 1.5673e-006
Heightened Def Con from 1.5673e-006 +to 1.5673e-006
Heightened Def Con from 1.5673e-006 to 1.5673e-006
Heightened Def Con from 1.5673e-006 ++to 1.5673e-006
Heightened Def Con from 1.5673e-006 +++++++to 1.5673e-006
Heightened Def Con from 1.5673e-006 to 1.5673e-006
Heightened Def Con from 1.58777e-006 ++++++to 1.58777e-006
Heightened Def Con from 1.61742e-006 to 1.61742e-006
Heightened Def Con from 1.61965e-006 +++++to 1.61965e-006
Heightened Def Con from 1.61965e-006 ++to 1.61965e-006
Heightened Def Con from 1.62729e-006 to 1.62729e-006
Heightened Def Con from 1.62738e-006 to 1.62738e-006
Heightened Def Con from 1.6673e-006 +++to 1.6673e-006
Heightened Def Con from 1.6673e-006 to 1.6673e-006
Heightened Def Con from 1.6673e-006 to 1.6673e-006
Heightened Def Con from 1.6673e-006 +to 1.6673e-006
Heightened Def Con from 1.6673e-006 to 1.6673e-006
Heightened Def Con from 1.6673e-006 +to 1.6673e-006
Heightened Def Con from 1.6673e-006 ++++++to 1.6673e-006
Heightened Def Con from 1.6673e-006 to 1.6673e-006
Heightened Def Con from 1.6673e-006 +to 1.6673e-006
Heightened Def Con from 1.6673e-006 ++to 1.6673e-006
Heightened Def Con from 1.6673e-006 to 1.6673e-006
Heightened Def Con from 1.6673e-006 to 1.6673e-006
Heightened Def Con from 1.6673e-006 +to 1.6673e-006
Heightened Def Con from 1.6673e-006 +to 1.6673e-006
Heightened Def Con from 1.6673e-006 ++++to 1.6673e-006
Heightened Def Con from 1.6673e-006 +to 1.6673e-006
Heightened Def Con from 1.6673e-006 ++to 1.6673e-006
Heightened Def Con from 1.6673e-006 to 1.6673e-006
Heightened Def Con from 1.6673e-006 to 1.6673e-006
Heightened Def Con from 1.6673e-006 +to 1.6673e-006
Heightened Def Con from 1.6673e-006 to 1.6673e-006
Heightened Def Con from 1.6673e-006 to 1.6673e-006
Heightened Def Con from 1.6673e-006 +to 1.6673e-006
Heightened Def Con from 1.6673e-006 to 1.6673e-006
Heightened Def Con from 1.6673e-006 ++++++++to 1.6673e-006
Heightened Def Con from 1.72729e-006 to 1.72729e-006
Heightened Def Con from 1.72738e-006 to 1.72738e-006
Heightened Def Con from 1.72738e-006 +to 1.72738e-006
Heightened Def Con from 1.72738e-006 to 1.72738e-006
Heightened Def Con from 1.74759e-006 +to 1.74759e-006
Heightened Def Con from 1.75745e-006 to 1.75745e-006
Heightened Def Con from 1.75745e-006 to 1.75745e-006
Heightened Def Con from 1.75745e-006 to 1.75745e-006
Heightened Def Con from 1.75745e-006 to 1.75745e-006
Heightened Def Con from 1.75745e-006 to 1.75745e-006
Heightened Def Con from 1.75745e-006 to 1.75745e-006
Heightened Def Con from 1.75745e-006 +to 1.75745e-006
Heightened Def Con from 1.75745e-006 to 1.75745e-006
Heightened Def Con from 1.75745e-006 to 1.75745e-006
Heightened Def Con from 1.75745e-006 to 1.75745e-006
Heightened Def Con from 1.75745e-006 to 1.75745e-006
Heightened Def Con from 1.75745e-006 +to 1.75745e-006
Heightened Def Con from 1.75745e-006 to 1.75745e-006
Heightened Def Con from 1.75745e-006 +to 1.75745e-006
Heightened Def Con from 1.75745e-006 +to 1.75745e-006
Heightened Def Con from 1.75745e-006 to 1.75745e-006
Heightened Def Con from 1.75745e-006 ++to 1.75745e-006
Heightened Def Con from 1.75745e-006 to 1.75745e-006
Heightened Def Con from 1.75745e-006 to 1.75745e-006
Heightened Def Con from 1.75745e-006 to 1.75745e-006
Heightened Def Con from 1.75745e-006 +to 1.75745e-006
Heightened Def Con from 1.75745e-006 to 1.75745e-006
Heightened Def Con from 1.75745e-006 to 1.75745e-006
Heightened Def Con from 1.75745e-006 +to 1.75745e-006
Heightened Def Con from 1.75745e-006 +to 1.75745e-006
Heightened Def Con from 1.75745e-006 to 1.75745e-006
Heightened Def Con from 1.75745e-006 +++++to 1.75745e-006
Heightened Def Con from 1.75745e-006 to 1.75745e-006
Heightened Def Con from 1.75745e-006 to 1.75745e-006
Heightened Def Con from 1.75745e-006 +++++to 1.75745e-006
Heightened Def Con from 1.7673e-006 to 1.7673e-006
Heightened Def Con from 1.89941e-006 to 1.89941e-006
Heightened Def Con from 1.90749e-006 +to 1.90749e-006
Heightened Def Con from 1.90749e-006 +to 1.90749e-006
Heightened Def Con from 1.90749e-006 ++to 1.90749e-006
Heightened Def Con from 1.90749e-006 to 1.90749e-006
Heightened Def Con from 1.91964e-006 +++to 1.91964e-006
Heightened Def Con from 1.92738e-006 to 1.92738e-006
Heightened Def Con from 1.9673e-006 ++++to 1.9673e-006
Heightened Def Con from 1.9673e-006 to 1.9673e-006
Heightened Def Con from 1.98777e-006 to 1.98777e-006
Heightened Def Con from 2.00729e-006 +to 2.00729e-006
Heightened Def Con from 2.00729e-006 +++to 2.00729e-006
Heightened Def Con from 2.00729e-006 ++to 2.00729e-006
Heightened Def Con from 2.00729e-006 ++++to 2.00729e-006
Heightened Def Con from 2.00729e-006 to 2.00729e-006
Heightened Def Con from 2.02738e-006 to 2.02738e-006
Heightened Def Con from 2.03744e-006 to 2.03744e-006
Heightened Def Con from 2.0473e-006 to 2.0473e-006
Heightened Def Con from 2.0473e-006 to 2.0473e-006
Heightened Def Con from 2.13744e-006 to 2.13744e-006
Heightened Def Con from 2.15745e-006 +to 2.15745e-006
Heightened Def Con from 2.15745e-006 to 2.15745e-006
Heightened Def Con from 2.15745e-006 to 2.15745e-006
Heightened Def Con from 2.15745e-006 ++to 2.15745e-006
Heightened Def Con from 2.15745e-006 +to 2.15745e-006
Heightened Def Con from 2.15745e-006 to 2.15745e-006
Heightened Def Con from 2.15745e-006 to 2.15745e-006
Heightened Def Con from 2.15745e-006 ++++to 2.15745e-006
Heightened Def Con from 2.15745e-006 to 2.15745e-006
Heightened Def Con from 2.17744e-006 to 2.17744e-006
Heightened Def Con from 2.17744e-006 to 2.17744e-006
Heightened Def Con from 2.17744e-006 to 2.17744e-006
Heightened Def Con from 2.17744e-006 to 2.17744e-006
Heightened Def Con from 2.17744e-006 +to 2.17744e-006
Heightened Def Con from 2.17744e-006 +to 2.17744e-006
Heightened Def Con from 2.17744e-006 +to 2.17744e-006
Heightened Def Con from 2.17744e-006 +++++to 2.17744e-006
Heightened Def Con from 2.17744e-006 +to 2.17744e-006
Heightened Def Con from 2.17744e-006 +to 2.17744e-006
Heightened Def Con from 2.17744e-006 to 2.17744e-006
Heightened Def Con from 2.17744e-006 ++to 2.17744e-006
Heightened Def Con from 2.17744e-006 +++to 2.17744e-006
Heightened Def Con from 2.17744e-006 to 2.17744e-006
Heightened Def Con from 2.17744e-006 ++to 2.17744e-006
Heightened Def Con from 2.17744e-006 to 2.17744e-006
Heightened Def Con from 2.17744e-006 to 2.17744e-006
Heightened Def Con from 2.17744e-006 +++to 2.17744e-006
Heightened Def Con from 2.17744e-006 +to 2.17744e-006
Heightened Def Con from 2.17744e-006 ++++to 2.17744e-006
Heightened Def Con from 2.18731e-006 to 2.18731e-006
Heightened Def Con from 2.18731e-006 to 2.18731e-006
Heightened Def Con from 2.18731e-006 +to 2.18731e-006
Heightened Def Con from 2.18731e-006 to 2.18731e-006
Heightened Def Con from 2.18731e-006 to 2.18731e-006
Heightened Def Con from 2.18731e-006 +to 2.18731e-006
Heightened Def Con from 2.18731e-006 to 2.18731e-006
Heightened Def Con from 2.18731e-006 to 2.18731e-006
Heightened Def Con from 2.18731e-006 to 2.18731e-006
Heightened Def Con from 2.18731e-006 to 2.18731e-006
Heightened Def Con from 2.18731e-006 to 2.18731e-006
Heightened Def Con from 2.18731e-006 to 2.18731e-006
Heightened Def Con from 2.18731e-006 to 2.18731e-006
Heightened Def Con from 2.18731e-006 to 2.18731e-006
Heightened Def Con from 2.18731e-006 to 2.18731e-006
Heightened Def Con from 2.18731e-006 to 2.18731e-006
Heightened Def Con from 2.18731e-006 +++to 2.18731e-006
Heightened Def Con from 2.18731e-006 to 2.18731e-006
Heightened Def Con from 2.18731e-006 +to 2.18731e-006
Heightened Def Con from 2.18731e-006 to 2.18731e-006
Heightened Def Con from 2.18731e-006 to 2.18731e-006
Heightened Def Con from 2.18731e-006 to 2.18731e-006
Heightened Def Con from 2.18731e-006 ++to 2.18731e-006
Heightened Def Con from 2.18731e-006 to 2.18731e-006
Heightened Def Con from 2.18731e-006 to 2.18731e-006
Heightened Def Con from 2.18731e-006 to 2.18731e-006
Heightened Def Con from 2.18731e-006 ++to 2.18731e-006
Heightened Def Con from 2.18731e-006 to 2.18731e-006
Heightened Def Con from 2.18731e-006 ++to 2.18731e-006
Heightened Def Con from 2.18731e-006 to 2.18731e-006
Heightened Def Con from 2.18731e-006 to 2.18731e-006
Heightened Def Con from 2.18731e-006 to 2.18731e-006
Heightened Def Con from 2.18731e-006 +to 2.18731e-006
Heightened Def Con from 2.18731e-006 to 2.18731e-006
Heightened Def Con from 2.18731e-006 +++to 2.18731e-006
Heightened Def Con from 2.18731e-006 to 2.18731e-006
Heightened Def Con from 2.18731e-006 to 2.18731e-006
Heightened Def Con from 2.18731e-006 +to 2.18731e-006
Heightened Def Con from 2.18731e-006 ++to 2.18731e-006
Heightened Def Con from 2.18731e-006 to 2.18731e-006
Heightened Def Con from 2.18731e-006 to 2.18731e-006
Heightened Def Con from 2.18731e-006 +++to 2.18731e-006
Heightened Def Con from 2.18731e-006 to 2.18731e-006
Heightened Def Con from 2.18731e-006 to 2.18731e-006
Heightened Def Con from 2.18731e-006 +to 2.18731e-006
Heightened Def Con from 2.18731e-006 +++to 2.18731e-006
Heightened Def Con from 2.18731e-006 ++to 2.18731e-006
Heightened Def Con from 2.18731e-006 to 2.18731e-006
Heightened Def Con from 2.18731e-006 ++to 2.18731e-006
Heightened Def Con from 2.18731e-006 +to 2.18731e-006
Heightened Def Con from 2.18731e-006 to 2.18731e-006
Heightened Def Con from 2.18731e-006 +to 2.18731e-006
Heightened Def Con from 2.18731e-006 to 2.18731e-006
Heightened Def Con from 2.18731e-006 +to 2.18731e-006
Heightened Def Con from 2.18731e-006 to 2.18731e-006
Heightened Def Con from 2.18731e-006 to 2.18731e-006
Heightened Def Con from 2.18731e-006 to 2.18731e-006
Heightened Def Con from 2.18731e-006 to 2.18731e-006
Heightened Def Con from 2.18731e-006 +to 2.18731e-006
Heightened Def Con from 2.18731e-006 to 2.18731e-006
Heightened Def Con from 2.18731e-006 +++to 2.18731e-006
Heightened Def Con from 2.18731e-006 +++to 2.18731e-006
Heightened Def Con from 2.18731e-006 ++++++++to 2.18731e-006
Heightened Def Con from 2.18731e-006 ++++++++to 2.18731e-006
Heightened Def Con from 2.18731e-006 ++to 2.18731e-006
Heightened Def Con from 2.18731e-006 to 2.18731e-006
Heightened Def Con from 2.18731e-006 +to 2.18731e-006
Heightened Def Con from 2.18731e-006 +to 2.18731e-006
Heightened Def Con from 2.18731e-006 to 2.18731e-006
Heightened Def Con from 2.18731e-006 to 2.18731e-006
Heightened Def Con from 2.18731e-006 to 2.18731e-006
Heightened Def Con from 2.18731e-006 ++++to 2.18731e-006
Heightened Def Con from 2.18731e-006 to 2.18731e-006
Heightened Def Con from 2.18731e-006 to 2.18731e-006
Heightened Def Con from 2.18731e-006 to 2.18731e-006
Heightened Def Con from 2.18731e-006 to 2.18731e-006
Heightened Def Con from 2.18731e-006 +++to 2.18731e-006
Heightened Def Con from 2.18731e-006 to 2.18731e-006
Heightened Def Con from 2.18731e-006 to 2.18731e-006
Heightened Def Con from 2.18731e-006 +++to 2.18731e-006
Heightened Def Con from 2.18731e-006 to 2.18731e-006
Heightened Def Con from 2.18731e-006 to 2.18731e-006
Heightened Def Con from 2.18731e-006 to 2.18731e-006
Heightened Def Con from 2.18731e-006 +++++++to 2.18731e-006
Heightened Def Con from 2.18731e-006 to 2.18731e-006
Heightened Def Con from 2.18731e-006 ++to 2.18731e-006
Heightened Def Con from 2.18731e-006 +++++++to 2.18731e-006
Heightened Def Con from 2.18731e-006 +++to 2.18731e-006
Heightened Def Con from 2.18731e-006 +to 2.18731e-006
Heightened Def Con from 2.18731e-006 +to 2.18731e-006
Heightened Def Con from 2.18731e-006 +++++to 2.18731e-006
Heightened Def Con from 2.18731e-006 ++to 2.18731e-006
Heightened Def Con from 2.18731e-006 ++++++to 2.18731e-006
Heightened Def Con from 2.18731e-006 +to 2.18731e-006
Heightened Def Con from 2.18731e-006 +to 2.18731e-006
Heightened Def Con from 2.18731e-006 to 2.18731e-006
Heightened Def Con from 2.18731e-006 +to 2.18731e-006
Heightened Def Con from 2.18731e-006 +to 2.18731e-006
Heightened Def Con from 2.18731e-006 to 2.18731e-006
Heightened Def Con from 2.18731e-006 ++++++to 2.18731e-006
Heightened Def Con from 2.18731e-006 to 2.18731e-006
Heightened Def Con from 2.18731e-006 ++++to 2.18731e-006
Heightened Def Con from 2.18731e-006 +to 2.18731e-006
Heightened Def Con from 2.18731e-006 to 2.18731e-006
Heightened Def Con from 2.18731e-006 to 2.18731e-006
Heightened Def Con from 2.18731e-006 +to 2.18731e-006
Heightened Def Con from 2.18731e-006 ++to 2.18731e-006
Heightened Def Con from 2.18731e-006 to 2.18731e-006
Heightened Def Con from 2.18731e-006 +to 2.18731e-006
Heightened Def Con from 2.18731e-006 +++++++++to 2.18731e-006
Heightened Def Con from 2.2273e-006 to 2.2273e-006
Heightened Def Con from 2.2273e-006 to 2.2273e-006
Heightened Def Con from 2.2273e-006 ++to 2.2273e-006
Heightened Def Con from 2.2273e-006 to 2.2273e-006
Heightened Def Con from 2.2273e-006 to 2.2273e-006
Heightened Def Con from 2.2273e-006 to 2.2273e-006
Heightened Def Con from 2.2273e-006 +to 2.2273e-006
Heightened Def Con from 2.2273e-006 to 2.2273e-006
Heightened Def Con from 2.2273e-006 to 2.2273e-006
Heightened Def Con from 2.2273e-006 ++++to 2.2273e-006
Heightened Def Con from 2.2273e-006 to 2.2273e-006
Heightened Def Con from 2.2273e-006 ++++++to 2.2273e-006
Heightened Def Con from 2.2273e-006 to 2.2273e-006
Heightened Def Con from 2.2273e-006 ++to 2.2273e-006
Heightened Def Con from 2.2273e-006 to 2.2273e-006
Heightened Def Con from 2.2273e-006 +++++++++++++++++to 2.2273e-006
Heightened Def Con from 2.25745e-006 to 2.25745e-006
Heightened Def Con from 2.25745e-006 to 2.25745e-006
Heightened Def Con from 2.25745e-006 +to 2.25745e-006
Heightened Def Con from 2.25745e-006 to 2.25745e-006
Heightened Def Con from 2.25745e-006 to 2.25745e-006
Heightened Def Con from 2.25745e-006 to 2.25745e-006
Heightened Def Con from 2.25745e-006 to 2.25745e-006
Heightened Def Con from 2.25745e-006 to 2.25745e-006
Heightened Def Con from 2.25745e-006 to 2.25745e-006
Heightened Def Con from 2.25745e-006 ++++to 2.25745e-006
Heightened Def Con from 2.25745e-006 to 2.25745e-006
Heightened Def Con from 2.25745e-006 to 2.25745e-006
Heightened Def Con from 2.25745e-006 +++to 2.25745e-006
Heightened Def Con from 2.25745e-006 to 2.25745e-006
Heightened Def Con from 2.25745e-006 +to 2.25745e-006
Heightened Def Con from 2.25745e-006 to 2.25745e-006
Heightened Def Con from 2.25745e-006 to 2.25745e-006
Heightened Def Con from 2.25745e-006 to 2.25745e-006
Heightened Def Con from 2.25745e-006 ++to 2.25745e-006
Heightened Def Con from 2.25745e-006 +++to 2.25745e-006
Heightened Def Con from 2.25745e-006 to 2.25745e-006
Heightened Def Con from 2.25745e-006 to 2.25745e-006
Heightened Def Con from 2.25745e-006 +to 2.25745e-006
Heightened Def Con from 2.25745e-006 to 2.25745e-006
Heightened Def Con from 2.25745e-006 to 2.25745e-006
Heightened Def Con from 2.25745e-006 to 2.25745e-006
Heightened Def Con from 2.25745e-006 to 2.25745e-006
Heightened Def Con from 2.25745e-006 to 2.25745e-006
Heightened Def Con from 2.25745e-006 to 2.25745e-006
Heightened Def Con from 2.25745e-006 +to 2.25745e-006
Heightened Def Con from 2.25745e-006 +to 2.25745e-006
Heightened Def Con from 2.25745e-006 to 2.25745e-006
Heightened Def Con from 2.25745e-006 to 2.25745e-006
Heightened Def Con from 2.25745e-006 to 2.25745e-006
Heightened Def Con from 2.25745e-006 to 2.25745e-006
Heightened Def Con from 2.25745e-006 +++to 2.25745e-006
Heightened Def Con from 2.25745e-006 to 2.25745e-006
Heightened Def Con from 2.25745e-006 +to 2.25745e-006
Heightened Def Con from 2.25745e-006 to 2.25745e-006
Heightened Def Con from 2.25745e-006 to 2.25745e-006
Heightened Def Con from 2.25745e-006 to 2.25745e-006
Heightened Def Con from 2.25745e-006 to 2.25745e-006
Heightened Def Con from 2.25745e-006 +to 2.25745e-006
Heightened Def Con from 2.25745e-006 to 2.25745e-006
Heightened Def Con from 2.25745e-006 to 2.25745e-006
Heightened Def Con from 2.25745e-006 to 2.25745e-006
Heightened Def Con from 2.25745e-006 to 2.25745e-006
Heightened Def Con from 2.25745e-006 to 2.25745e-006
Heightened Def Con from 2.25745e-006 to 2.25745e-006
Heightened Def Con from 2.25745e-006 to 2.25745e-006
Heightened Def Con from 2.25745e-006 +++to 2.25745e-006
Heightened Def Con from 2.25745e-006 +++++to 2.25745e-006
Heightened Def Con from 2.26731e-006 to 2.26731e-006
Heightened Def Con from 2.26731e-006 +to 2.26731e-006
Heightened Def Con from 2.26731e-006 +to 2.26731e-006
Heightened Def Con from 2.26731e-006 to 2.26731e-006
Heightened Def Con from 2.26731e-006 ++++to 2.26731e-006
Heightened Def Con from 2.26731e-006 +to 2.26731e-006
Heightened Def Con from 2.26731e-006 to 2.26731e-006
Heightened Def Con from 2.26731e-006 to 2.26731e-006
Heightened Def Con from 2.26731e-006 to 2.26731e-006
Heightened Def Con from 2.26731e-006 to 2.26731e-006
Heightened Def Con from 2.26731e-006 +to 2.26731e-006
Heightened Def Con from 2.26731e-006 to 2.26731e-006
Heightened Def Con from 2.26731e-006 +++to 2.26731e-006
Heightened Def Con from 2.26731e-006 +++++++to 2.26731e-006
Heightened Def Con from 2.26731e-006 to 2.26731e-006
Heightened Def Con from 2.26731e-006 to 2.26731e-006
Heightened Def Con from 2.26731e-006 to 2.26731e-006
Heightened Def Con from 2.26731e-006 ++++to 2.26731e-006
Heightened Def Con from 2.26731e-006 +++++++to 2.26731e-006
Heightened Def Con from 2.26731e-006 to 2.26731e-006
Heightened Def Con from 2.26782e-006 +++++to 2.26782e-006
Heightened Def Con from 2.28777e-006 to 2.28777e-006
Heightened Def Con from 2.29742e-006 ++to 2.29742e-006
Heightened Def Con from 2.29742e-006 to 2.29742e-006
Heightened Def Con from 2.29742e-006 to 2.29742e-006
Heightened Def Con from 2.29742e-006 +to 2.29742e-006
Heightened Def Con from 2.29742e-006 to 2.29742e-006
Heightened Def Con from 2.29742e-006 ++to 2.29742e-006
Heightened Def Con from 2.29742e-006 ++to 2.29742e-006
Heightened Def Con from 2.29742e-006 to 2.29742e-006
Heightened Def Con from 2.29742e-006 +to 2.29742e-006
Heightened Def Con from 2.29742e-006 +to 2.29742e-006
Heightened Def Con from 2.29742e-006 +to 2.29742e-006
Heightened Def Con from 2.29742e-006 +to 2.29742e-006
Heightened Def Con from 2.29742e-006 +to 2.29742e-006
Heightened Def Con from 2.29742e-006 to 2.29742e-006
Heightened Def Con from 2.29742e-006 ++to 2.29742e-006
Heightened Def Con from 2.29742e-006 +to 2.29742e-006
Heightened Def Con from 2.29742e-006 ++to 2.29742e-006
Heightened Def Con from 2.29742e-006 ++++to 2.29742e-006
Heightened Def Con from 2.29742e-006 to 2.29742e-006
Heightened Def Con from 2.29742e-006 to 2.29742e-006
Heightened Def Con from 2.29742e-006 to 2.29742e-006
Heightened Def Con from 2.29742e-006 to 2.29742e-006
Heightened Def Con from 2.29742e-006 ++++to 2.29742e-006
Heightened Def Con from 2.29742e-006 ++to 2.29742e-006
Heightened Def Con from 2.29742e-006 +to 2.29742e-006
Heightened Def Con from 2.29742e-006 ++to 2.29742e-006
Heightened Def Con from 2.29742e-006 +to 2.29742e-006
Heightened Def Con from 2.29742e-006 to 2.29742e-006
Heightened Def Con from 2.29742e-006 ++++to 2.29742e-006
Heightened Def Con from 2.29742e-006 to 2.29742e-006
Heightened Def Con from 2.3273e-006 to 2.3273e-006
Heightened Def Con from 2.3273e-006 to 2.3273e-006
Heightened Def Con from 2.34731e-006 to 2.34731e-006
Heightened Def Con from 2.34731e-006 +to 2.34731e-006
Heightened Def Con from 2.34731e-006 ++to 2.34731e-006
Heightened Def Con from 2.34731e-006 to 2.34731e-006
Heightened Def Con from 2.34731e-006 +++to 2.34731e-006
Heightened Def Con from 2.34731e-006 ++++++++++to 2.34731e-006
Heightened Def Con from 2.34731e-006 to 2.34731e-006
Heightened Def Con from 2.44731e-006 +to 2.44731e-006
Heightened Def Con from 2.44731e-006 +to 2.44731e-006
Heightened Def Con from 2.44731e-006 to 2.44731e-006
Heightened Def Con from 2.44731e-006 +to 2.44731e-006
Heightened Def Con from 2.44731e-006 to 2.44731e-006
Heightened Def Con from 2.44731e-006 +to 2.44731e-006
Heightened Def Con from 2.44731e-006 to 2.44731e-006
Heightened Def Con from 2.44731e-006 +++to 2.44731e-006
Heightened Def Con from 2.44731e-006 to 2.44731e-006
Heightened Def Con from 2.44731e-006 to 2.44731e-006
Heightened Def Con from 2.44731e-006 to 2.44731e-006
Heightened Def Con from 2.44731e-006 +++to 2.44731e-006
Heightened Def Con from 2.44731e-006 to 2.44731e-006
Heightened Def Con from 2.44731e-006 ++to 2.44731e-006
Heightened Def Con from 2.44731e-006 ++to 2.44731e-006
Heightened Def Con from 2.44731e-006 ++++++to 2.44731e-006
Heightened Def Con from 2.44731e-006 to 2.44731e-006
Heightened Def Con from 2.44731e-006 to 2.44731e-006
Heightened Def Con from 2.44731e-006 ++to 2.44731e-006
Heightened Def Con from 2.44731e-006 to 2.44731e-006
Heightened Def Con from 2.44731e-006 to 2.44731e-006
Heightened Def Con from 2.44731e-006 +to 2.44731e-006
Heightened Def Con from 2.44731e-006 ++to 2.44731e-006
Heightened Def Con from 2.44731e-006 to 2.44731e-006
Heightened Def Con from 2.44731e-006 to 2.44731e-006
Heightened Def Con from 2.44731e-006 to 2.44731e-006
Heightened Def Con from 2.44731e-006 ++to 2.44731e-006
Heightened Def Con from 2.44731e-006 to 2.44731e-006
Heightened Def Con from 2.44731e-006 ++to 2.44731e-006
Heightened Def Con from 2.44731e-006 to 2.44731e-006
Heightened Def Con from 2.44731e-006 to 2.44731e-006
Heightened Def Con from 2.44731e-006 to 2.44731e-006
Heightened Def Con from 2.44731e-006 +to 2.44731e-006
Heightened Def Con from 2.44731e-006 +++to 2.44731e-006
Heightened Def Con from 2.44731e-006 to 2.44731e-006
Heightened Def Con from 2.44731e-006 to 2.44731e-006
Heightened Def Con from 2.44731e-006 to 2.44731e-006
Heightened Def Con from 2.44731e-006 ++++++++++++++to 2.44731e-006
Heightened Def Con from 2.47743e-006 to 2.47743e-006
Heightened Def Con from 2.47743e-006 +to 2.47743e-006
Heightened Def Con from 2.47743e-006 ++to 2.47743e-006
Heightened Def Con from 2.47743e-006 to 2.47743e-006
Heightened Def Con from 2.47743e-006 to 2.47743e-006
Heightened Def Con from 2.47743e-006 +to 2.47743e-006
Heightened Def Con from 2.47743e-006 +to 2.47743e-006
Heightened Def Con from 2.47743e-006 +to 2.47743e-006
Heightened Def Con from 2.47743e-006 to 2.47743e-006
Heightened Def Con from 2.47743e-006 +to 2.47743e-006
Heightened Def Con from 2.47743e-006 to 2.47743e-006
Heightened Def Con from 2.47743e-006 to 2.47743e-006
Heightened Def Con from 2.47743e-006 to 2.47743e-006
Heightened Def Con from 2.47743e-006 to 2.47743e-006
Heightened Def Con from 2.47743e-006 ++++to 2.47743e-006
Heightened Def Con from 2.47743e-006 to 2.47743e-006
Heightened Def Con from 2.47743e-006 to 2.47743e-006
Heightened Def Con from 2.47743e-006 to 2.47743e-006
Heightened Def Con from 2.47743e-006 to 2.47743e-006
Heightened Def Con from 2.47743e-006 ++++to 2.47743e-006
Heightened Def Con from 2.47743e-006 to 2.47743e-006
Heightened Def Con from 2.47743e-006 to 2.47743e-006
Heightened Def Con from 2.47743e-006 to 2.47743e-006
Heightened Def Con from 2.47743e-006 to 2.47743e-006
Heightened Def Con from 2.47743e-006 +++to 2.47743e-006
Heightened Def Con from 2.47743e-006 to 2.47743e-006
Heightened Def Con from 2.47743e-006 to 2.47743e-006
Heightened Def Con from 2.47743e-006 +++++to 2.47743e-006
Heightened Def Con from 2.5073e-006 to 2.5073e-006
Heightened Def Con from 2.5273e-006 to 2.5273e-006
Heightened Def Con from 2.5273e-006 to 2.5273e-006
Heightened Def Con from 2.5273e-006 to 2.5273e-006
Heightened Def Con from 2.5273e-006 to 2.5273e-006
Heightened Def Con from 2.5273e-006 to 2.5273e-006
Heightened Def Con from 2.5273e-006 to 2.5273e-006
Heightened Def Con from 2.5273e-006 ++++++++to 2.5273e-006
Heightened Def Con from 2.5273e-006 +++++++to 2.5273e-006
Heightened Def Con from 2.5273e-006 to 2.5273e-006
Heightened Def Con from 2.54731e-006 +to 2.54731e-006
Heightened Def Con from 2.54731e-006 to 2.54731e-006
Heightened Def Con from 2.57743e-006 to 2.57743e-006
Heightened Def Con from 2.57743e-006 to 2.57743e-006
Heightened Def Con from 2.57743e-006 to 2.57743e-006
Heightened Def Con from 2.57743e-006 +++to 2.57743e-006
Heightened Def Con from 2.57743e-006 to 2.57743e-006
Heightened Def Con from 2.57743e-006 +to 2.57743e-006
Heightened Def Con from 2.57743e-006 ++to 2.57743e-006
Heightened Def Con from 2.57743e-006 +to 2.57743e-006
Heightened Def Con from 2.57743e-006 +to 2.57743e-006
Heightened Def Con from 2.57743e-006 to 2.57743e-006
Heightened Def Con from 2.57743e-006 +to 2.57743e-006
Heightened Def Con from 2.57743e-006 +to 2.57743e-006
Heightened Def Con from 2.57743e-006 +to 2.57743e-006
Heightened Def Con from 2.57743e-006 to 2.57743e-006
Heightened Def Con from 2.57743e-006 ++++to 2.57743e-006
Heightened Def Con from 2.57743e-006 +to 2.57743e-006
Heightened Def Con from 2.57743e-006 ++to 2.57743e-006
Heightened Def Con from 2.57743e-006 to 2.57743e-006
Heightened Def Con from 2.57743e-006 to 2.57743e-006
Heightened Def Con from 2.57743e-006 ++++to 2.57743e-006
Heightened Def Con from 2.57743e-006 ++to 2.57743e-006
Heightened Def Con from 2.57743e-006 +to 2.57743e-006
Heightened Def Con from 2.57743e-006 to 2.57743e-006
Heightened Def Con from 2.57743e-006 to 2.57743e-006
Heightened Def Con from 2.57743e-006 ++++to 2.57743e-006
Heightened Def Con from 2.57743e-006 to 2.57743e-006
Heightened Def Con from 2.58731e-006 to 2.58731e-006
Heightened Def Con from 2.58731e-006 +++++++to 2.58731e-006
Heightened Def Con from 2.58731e-006 +to 2.58731e-006
Heightened Def Con from 2.58731e-006 +to 2.58731e-006
Heightened Def Con from 2.58731e-006 +to 2.58731e-006
Heightened Def Con from 2.58731e-006 to 2.58731e-006
Heightened Def Con from 2.58731e-006 +to 2.58731e-006
Heightened Def Con from 2.58731e-006 +to 2.58731e-006
Heightened Def Con from 2.58731e-006 +to 2.58731e-006
Heightened Def Con from 2.58731e-006 to 2.58731e-006
Heightened Def Con from 2.58731e-006 to 2.58731e-006
Heightened Def Con from 2.58731e-006 ++to 2.58731e-006
Heightened Def Con from 2.58731e-006 to 2.58731e-006
Heightened Def Con from 2.58731e-006 ++to 2.58731e-006
Heightened Def Con from 2.58731e-006 to 2.58731e-006
Heightened Def Con from 2.58731e-006 +to 2.58731e-006
Heightened Def Con from 2.58731e-006 +to 2.58731e-006
Heightened Def Con from 2.58731e-006 +to 2.58731e-006
Heightened Def Con from 2.58731e-006 to 2.58731e-006
Heightened Def Con from 2.58731e-006 ++to 2.58731e-006
Heightened Def Con from 2.58731e-006 to 2.58731e-006
Heightened Def Con from 2.58731e-006 to 2.58731e-006
Heightened Def Con from 2.58731e-006 to 2.58731e-006
Heightened Def Con from 2.58731e-006 to 2.58731e-006
Heightened Def Con from 2.58731e-006 to 2.58731e-006
Heightened Def Con from 2.58731e-006 to 2.58731e-006
Heightened Def Con from 2.58731e-006 to 2.58731e-006
Heightened Def Con from 2.58731e-006 to 2.58731e-006
Heightened Def Con from 2.58731e-006 to 2.58731e-006
Heightened Def Con from 2.58731e-006 to 2.58731e-006
Heightened Def Con from 2.58731e-006 to 2.58731e-006
Heightened Def Con from 2.58731e-006 to 2.58731e-006
Heightened Def Con from 2.58731e-006 to 2.58731e-006
Heightened Def Con from 2.58731e-006 ++to 2.58731e-006
Heightened Def Con from 2.58731e-006 +to 2.58731e-006
Heightened Def Con from 2.58731e-006 to 2.58731e-006
Heightened Def Con from 2.58731e-006 to 2.58731e-006
Heightened Def Con from 2.58731e-006 to 2.58731e-006
Heightened Def Con from 2.58731e-006 to 2.58731e-006
Heightened Def Con from 2.58731e-006 ++to 2.58731e-006
Heightened Def Con from 2.58731e-006 ++to 2.58731e-006
Heightened Def Con from 2.58731e-006 +to 2.58731e-006
Heightened Def Con from 2.58731e-006 +to 2.58731e-006
Heightened Def Con from 2.58731e-006 to 2.58731e-006
Heightened Def Con from 2.58731e-006 +to 2.58731e-006
Heightened Def Con from 2.58731e-006 to 2.58731e-006
Heightened Def Con from 2.58731e-006 to 2.58731e-006
Heightened Def Con from 2.58731e-006 +to 2.58731e-006
Heightened Def Con from 2.58731e-006 to 2.58731e-006
Heightened Def Con from 2.58731e-006 to 2.58731e-006
Heightened Def Con from 2.58731e-006 +to 2.58731e-006
Heightened Def Con from 2.58731e-006 +to 2.58731e-006
Heightened Def Con from 2.58731e-006 to 2.58731e-006
Heightened Def Con from 2.58731e-006 to 2.58731e-006
Heightened Def Con from 2.58731e-006 to 2.58731e-006
Heightened Def Con from 2.58731e-006 ++to 2.58731e-006
Heightened Def Con from 2.58731e-006 +to 2.58731e-006
Heightened Def Con from 2.58731e-006 to 2.58731e-006
Heightened Def Con from 2.58731e-006 ++to 2.58731e-006
Heightened Def Con from 2.58731e-006 ++to 2.58731e-006
Heightened Def Con from 2.58731e-006 to 2.58731e-006
Heightened Def Con from 2.58731e-006 to 2.58731e-006
Heightened Def Con from 2.58731e-006 +to 2.58731e-006
Heightened Def Con from 2.58731e-006 to 2.58731e-006
Heightened Def Con from 2.58731e-006 to 2.58731e-006
Heightened Def Con from 2.58731e-006 to 2.58731e-006
Heightened Def Con from 2.58731e-006 to 2.58731e-006
Heightened Def Con from 2.58731e-006 to 2.58731e-006
Heightened Def Con from 2.58731e-006 to 2.58731e-006
Heightened Def Con from 2.58731e-006 ++to 2.58731e-006
Heightened Def Con from 2.58731e-006 +++to 2.58731e-006
Heightened Def Con from 2.58731e-006 to 2.58731e-006
Heightened Def Con from 2.58731e-006 to 2.58731e-006
Heightened Def Con from 2.58731e-006 +to 2.58731e-006
Heightened Def Con from 2.58731e-006 +to 2.58731e-006
Heightened Def Con from 2.58731e-006 to 2.58731e-006
Heightened Def Con from 2.58731e-006 to 2.58731e-006
Heightened Def Con from 2.58731e-006 to 2.58731e-006
Heightened Def Con from 2.58731e-006 to 2.58731e-006
Heightened Def Con from 2.58731e-006 +to 2.58731e-006
Heightened Def Con from 2.58731e-006 +to 2.58731e-006
Heightened Def Con from 2.58731e-006 to 2.58731e-006
Heightened Def Con from 2.58731e-006 to 2.58731e-006
Heightened Def Con from 2.58731e-006 to 2.58731e-006
Heightened Def Con from 2.58731e-006 +to 2.58731e-006
Heightened Def Con from 2.58731e-006 ++to 2.58731e-006
Heightened Def Con from 2.58731e-006 +++to 2.58731e-006
Heightened Def Con from 2.58731e-006 to 2.58731e-006
Heightened Def Con from 2.58731e-006 +to 2.58731e-006
Heightened Def Con from 2.58731e-006 to 2.58731e-006
Heightened Def Con from 2.58731e-006 to 2.58731e-006
Heightened Def Con from 2.58731e-006 to 2.58731e-006
Heightened Def Con from 2.58731e-006 to 2.58731e-006
Heightened Def Con from 2.58731e-006 ++to 2.58731e-006
Heightened Def Con from 2.58731e-006 to 2.58731e-006
Heightened Def Con from 2.58731e-006 +to 2.58731e-006
Heightened Def Con from 2.58731e-006 +to 2.58731e-006
Heightened Def Con from 2.58731e-006 ++++++++++to 2.58731e-006
Heightened Def Con from 2.59742e-006 to 2.59742e-006
Heightened Def Con from 2.59742e-006 to 2.59742e-006
Heightened Def Con from 2.59742e-006 +to 2.59742e-006
Heightened Def Con from 2.59742e-006 ++to 2.59742e-006
Heightened Def Con from 2.59742e-006 +to 2.59742e-006
Heightened Def Con from 2.59742e-006 to 2.59742e-006
Heightened Def Con from 2.59742e-006 to 2.59742e-006
Heightened Def Con from 2.59742e-006 ++to 2.59742e-006
Heightened Def Con from 2.59742e-006 +to 2.59742e-006
Heightened Def Con from 2.59742e-006 to 2.59742e-006
Heightened Def Con from 2.59742e-006 to 2.59742e-006
Heightened Def Con from 2.59742e-006 ++++to 2.59742e-006
Heightened Def Con from 2.59742e-006 to 2.59742e-006
Heightened Def Con from 2.59941e-006 to 2.59941e-006
Heightened Def Con from 2.6073e-006 to 2.6073e-006
Heightened Def Con from 2.6073e-006 to 2.6073e-006
Heightened Def Con from 2.6073e-006 to 2.6073e-006
Heightened Def Con from 2.6073e-006 to 2.6073e-006
Heightened Def Con from 2.6073e-006 +++to 2.6073e-006
Heightened Def Con from 2.6073e-006 to 2.6073e-006
Heightened Def Con from 2.6073e-006 +++++++++++++++to 2.6073e-006
Heightened Def Con from 2.63958e-006 to 2.63958e-006
Heightened Def Con from 2.63958e-006 to 2.63958e-006
Heightened Def Con from 2.66731e-006 to 2.66731e-006
Heightened Def Con from 2.66782e-006 to 2.66782e-006
Heightened Def Con from 2.66782e-006 to 2.66782e-006
Heightened Def Con from 2.66782e-006 ++++to 2.66782e-006
Heightened Def Con from 2.66782e-006 ++++to 2.66782e-006
Heightened Def Con from 2.7073e-006 to 2.7073e-006
Heightened Def Con from 2.7073e-006 to 2.7073e-006
Heightened Def Con from 2.7073e-006 ++++to 2.7073e-006
Heightened Def Con from 2.7073e-006 to 2.7073e-006
Heightened Def Con from 2.7073e-006 to 2.7073e-006
Heightened Def Con from 2.7073e-006 to 2.7073e-006
Heightened Def Con from 2.7073e-006 ++++++++++to 2.7073e-006
Heightened Def Con from 2.7073e-006 to 2.7073e-006
Heightened Def Con from 2.7273e-006 ++++++++to 2.7273e-006
Heightened Def Con from 2.7273e-006 ++++++++++++++++++to 2.7273e-006
Heightened Def Con from 2.77743e-006 ++to 2.77743e-006
Heightened Def Con from 2.77743e-006 to 2.77743e-006
Heightened Def Con from 2.77743e-006 to 2.77743e-006
Heightened Def Con from 2.77743e-006 to 2.77743e-006
Heightened Def Con from 2.77743e-006 to 2.77743e-006
Heightened Def Con from 2.77743e-006 to 2.77743e-006
Heightened Def Con from 2.77743e-006 to 2.77743e-006
Heightened Def Con from 2.77743e-006 +to 2.77743e-006
Heightened Def Con from 2.77743e-006 ++to 2.77743e-006
Heightened Def Con from 2.77743e-006 to 2.77743e-006
Heightened Def Con from 2.77743e-006 +to 2.77743e-006
Heightened Def Con from 2.77743e-006 to 2.77743e-006
Heightened Def Con from 2.77743e-006 ++++to 2.77743e-006
Heightened Def Con from 2.79742e-006 to 2.79742e-006
Heightened Def Con from 2.79742e-006 +to 2.79742e-006
Heightened Def Con from 2.79742e-006 to 2.79742e-006
Heightened Def Con from 2.79742e-006 to 2.79742e-006
Heightened Def Con from 2.79742e-006 to 2.79742e-006
Heightened Def Con from 2.79742e-006 ++to 2.79742e-006
Heightened Def Con from 2.79742e-006 to 2.79742e-006
Heightened Def Con from 2.79742e-006 ++to 2.79742e-006
Heightened Def Con from 2.79742e-006 to 2.79742e-006
Heightened Def Con from 2.79742e-006 to 2.79742e-006
Heightened Def Con from 2.79742e-006 to 2.79742e-006
Heightened Def Con from 2.79742e-006 to 2.79742e-006
Heightened Def Con from 2.79742e-006 to 2.79742e-006
Heightened Def Con from 2.79742e-006 +to 2.79742e-006
Heightened Def Con from 2.79742e-006 to 2.79742e-006
Heightened Def Con from 2.79742e-006 +to 2.79742e-006
Heightened Def Con from 2.79742e-006 to 2.79742e-006
Heightened Def Con from 2.79742e-006 ++++to 2.79742e-006
Heightened Def Con from 2.79742e-006 to 2.79742e-006
Heightened Def Con from 2.79742e-006 ++++to 2.79742e-006
Heightened Def Con from 2.79742e-006 +++++to 2.79742e-006
Heightened Def Con from 2.79742e-006 +to 2.79742e-006
Heightened Def Con from 2.79742e-006 to 2.79742e-006
Heightened Def Con from 2.79742e-006 to 2.79742e-006
Heightened Def Con from 2.79742e-006 +to 2.79742e-006
Heightened Def Con from 2.79742e-006 ++to 2.79742e-006
Heightened Def Con from 2.79742e-006 to 2.79742e-006
Heightened Def Con from 2.79742e-006 to 2.79742e-006
Heightened Def Con from 2.79742e-006 +++to 2.79742e-006
Heightened Def Con from 2.79742e-006 to 2.79742e-006
Heightened Def Con from 2.79742e-006 to 2.79742e-006
Heightened Def Con from 2.79742e-006 +++++to 2.79742e-006
Heightened Def Con from 2.79941e-006 to 2.79941e-006
Heightened Def Con from 2.8073e-006 ++to 2.8073e-006
Heightened Def Con from 2.8073e-006 to 2.8073e-006
Heightened Def Con from 2.8073e-006 to 2.8073e-006
Heightened Def Con from 2.8073e-006 to 2.8073e-006
Heightened Def Con from 2.8073e-006 to 2.8073e-006
Heightened Def Con from 2.8073e-006 to 2.8073e-006
Heightened Def Con from 2.8073e-006 to 2.8073e-006
Heightened Def Con from 2.8073e-006 to 2.8073e-006
Heightened Def Con from 2.8073e-006 to 2.8073e-006
Heightened Def Con from 2.8073e-006 ++to 2.8073e-006
Heightened Def Con from 2.8073e-006 to 2.8073e-006
Heightened Def Con from 2.8073e-006 +to 2.8073e-006
Heightened Def Con from 2.8073e-006 to 2.8073e-006
Heightened Def Con from 2.8073e-006 to 2.8073e-006
Heightened Def Con from 2.8073e-006 ++++to 2.8073e-006
Heightened Def Con from 2.8073e-006 +++to 2.8073e-006
Heightened Def Con from 2.8073e-006 to 2.8073e-006
Heightened Def Con from 2.8073e-006 to 2.8073e-006
Heightened Def Con from 2.8073e-006 +++++++++++to 2.8073e-006
Heightened Def Con from 2.8073e-006 to 2.8073e-006
Heightened Def Con from 2.8273e-006 to 2.8273e-006
Heightened Def Con from 2.8273e-006 +to 2.8273e-006
Heightened Def Con from 2.8273e-006 to 2.8273e-006
Heightened Def Con from 2.8273e-006 to 2.8273e-006
Heightened Def Con from 2.8273e-006 to 2.8273e-006
Heightened Def Con from 2.8273e-006 +to 2.8273e-006
Heightened Def Con from 2.8273e-006 +to 2.8273e-006
Heightened Def Con from 2.8273e-006 to 2.8273e-006
Heightened Def Con from 2.8273e-006 to 2.8273e-006
Heightened Def Con from 2.8273e-006 to 2.8273e-006
Heightened Def Con from 2.8273e-006 ++++++++++++++++++to 2.8273e-006
Heightened Def Con from 2.84731e-006 to 2.84731e-006
Heightened Def Con from 2.86731e-006 to 2.86731e-006
Heightened Def Con from 2.86731e-006 to 2.86731e-006
Heightened Def Con from 2.86731e-006 to 2.86731e-006
Heightened Def Con from 2.86731e-006 to 2.86731e-006
Heightened Def Con from 2.86731e-006 to 2.86731e-006
Heightened Def Con from 2.86731e-006 +to 2.86731e-006
Heightened Def Con from 2.86731e-006 to 2.86731e-006
Heightened Def Con from 2.86731e-006 +++to 2.86731e-006
Heightened Def Con from 2.86731e-006 to 2.86731e-006
Heightened Def Con from 2.86731e-006 +to 2.86731e-006
Heightened Def Con from 2.86731e-006 ++++to 2.86731e-006
Heightened Def Con from 2.86731e-006 to 2.86731e-006
Heightened Def Con from 2.86731e-006 to 2.86731e-006
Heightened Def Con from 2.86731e-006 +to 2.86731e-006
Heightened Def Con from 2.86731e-006 to 2.86731e-006
Heightened Def Con from 2.86731e-006 +to 2.86731e-006
Heightened Def Con from 2.86731e-006 ++++++++to 2.86731e-006
Heightened Def Con from 2.86731e-006 to 2.86731e-006
Heightened Def Con from 2.86782e-006 to 2.86782e-006
Heightened Def Con from 2.9073e-006 to 2.9073e-006
Heightened Def Con from 2.99742e-006 to 2.99742e-006
Heightened Def Con from 2.99742e-006 to 2.99742e-006
Heightened Def Con from 2.99742e-006 to 2.99742e-006
Heightened Def Con from 2.99742e-006 to 2.99742e-006
Heightened Def Con from 2.99742e-006 to 2.99742e-006
Heightened Def Con from 2.99742e-006 to 2.99742e-006
Heightened Def Con from 2.99742e-006 to 2.99742e-006
Heightened Def Con from 2.99742e-006 to 2.99742e-006
Heightened Def Con from 2.99742e-006 to 2.99742e-006
Heightened Def Con from 2.99742e-006 +to 2.99742e-006
Heightened Def Con from 2.99742e-006 +to 2.99742e-006
Heightened Def Con from 2.99742e-006 +to 2.99742e-006
Heightened Def Con from 2.99742e-006 to 2.99742e-006
Heightened Def Con from 2.99742e-006 to 2.99742e-006
Heightened Def Con from 2.99742e-006 to 2.99742e-006
Heightened Def Con from 2.99742e-006 to 2.99742e-006
Heightened Def Con from 2.99742e-006 to 2.99742e-006
Heightened Def Con from 2.99742e-006 to 2.99742e-006
Heightened Def Con from 2.99742e-006 to 2.99742e-006
Heightened Def Con from 2.99742e-006 to 2.99742e-006
Heightened Def Con from 2.99742e-006 to 2.99742e-006
Heightened Def Con from 2.99742e-006 to 2.99742e-006
Heightened Def Con from 2.99742e-006 ++to 2.99742e-006
Heightened Def Con from 2.99742e-006 to 2.99742e-006
Heightened Def Con from 2.99742e-006 to 2.99742e-006
Heightened Def Con from 2.99742e-006 +++to 2.99742e-006
Heightened Def Con from 2.99742e-006 to 2.99742e-006
Heightened Def Con from 2.99742e-006 to 2.99742e-006
Heightened Def Con from 2.99742e-006 to 2.99742e-006
Heightened Def Con from 2.99742e-006 +++to 2.99742e-006
Heightened Def Con from 2.99742e-006 +++to 2.99742e-006
Heightened Def Con from 2.99742e-006 ++to 2.99742e-006
Heightened Def Con from 2.99742e-006 to 2.99742e-006
Heightened Def Con from 2.99742e-006 to 2.99742e-006
[...]
Heightened Def Con from 4.99742e-006 to 4.99742e-006
Heightened Def Con from 4.99742e-006 +to 4.99742e-006
Heightened Def Con from 4.99742e-006 to 4.99742e-006
Heightened Def Con from 4.99742e-006 +to 4.99742e-006
Heightened Def Con from 4.99742e-006 ++to 4.99742e-006
Heightened Def Con from 4.99742e-006 +to 4.99742e-006
Heightened Def Con from 4.99742e-006 to 4.99742e-006
Heightened Def Con from 4.99742e-006 to 4.99742e-006
Heightened Def Con from 4.99742e-006 to 4.99742e-006
Heightened Def Con from 4.99742e-006 ++to 4.99742e-006
Heightened Def Con from 4.99742e-006 +to 4.99742e-006
Heightened Def Con from 4.99742e-006 +to 4.99742e-006
Heightened Def Con from 4.99742e-006 to 4.99742e-006
Heightened Def Con from 4.99742e-006 to 4.99742e-006
Heightened Def Con from 4.99742e-006 to 4.99742e-006
Heightened Def Con from 4.99742e-006 ++++to 4.99742e-006
Heightened Def Con from 4.99742e-006 to 4.99742e-006
Heightened Def Con from 4.99742e-006 to 4.99742e-006
Heightened Def Con from 5.04731e-006 to 5.04731e-006
Heightened Def Con from 5.04731e-006 to 5.04731e-006
Heightened Def Con from 5.16731e-006 to 5.16731e-006
Heightened Def Con from 5.16731e-006 +++to 5.16731e-006
Heightened Def Con from 5.16731e-006 +to 5.16731e-006
Heightened Def Con from 5.16731e-006 to 5.16731e-006
Heightened Def Con from 5.16731e-006 to 5.16731e-006
Heightened Def Con from 5.16731e-006 to 5.16731e-006
Heightened Def Con from 5.16731e-006 to 5.16731e-006
Heightened Def Con from 5.16731e-006 to 5.16731e-006
Heightened Def Con from 5.16731e-006 to 5.16731e-006
Heightened Def Con from 5.16731e-006 to 5.16731e-006
Heightened Def Con from 5.16731e-006 to 5.16731e-006
Heightened Def Con from 5.16731e-006 to 5.16731e-006
Heightened Def Con from 5.16731e-006 to 5.16731e-006
Heightened Def Con from 5.16731e-006 +to 5.16731e-006
Heightened Def Con from 5.16731e-006 to 5.16731e-006
Heightened Def Con from 5.16731e-006 to 5.16731e-006
Heightened Def Con from 5.16731e-006 to 5.16731e-006
Heightened Def Con from 5.16731e-006 ++to 5.16731e-006
Heightened Def Con from 5.16731e-006 to 5.16731e-006
Heightened Def Con from 5.16731e-006 ++++to 5.16731e-006
Heightened Def Con from 5.16731e-006 +to 5.16731e-006
Heightened Def Con from 5.16731e-006 to 5.16731e-006
Heightened Def Con from 5.16731e-006 +to 5.16731e-006
Heightened Def Con from 5.16731e-006 to 5.16731e-006
Heightened Def Con from 5.16731e-006 to 5.16731e-006
Heightened Def Con from 5.16731e-006 +++++++++to 5.16731e-006
Heightened Def Con from 5.19941e-006 to 5.19941e-006
Heightened Def Con from 5.19941e-006 to 5.19941e-006
Heightened Def Con from 5.2073e-006 to 5.2073e-006
Heightened Def Con from 5.2273e-006 ++++to 5.2273e-006
Heightened Def Con from 5.27743e-006 to 5.27743e-006
Heightened Def Con from 5.27743e-006 to 5.27743e-006
Heightened Def Con from 5.27743e-006 to 5.27743e-006
Heightened Def Con from 5.27743e-006 +++to 5.27743e-006
Heightened Def Con from 5.27743e-006 to 5.27743e-006
Heightened Def Con from 5.27743e-006 +++to 5.27743e-006
Heightened Def Con from 5.27743e-006 +to 5.27743e-006
Heightened Def Con from 5.27743e-006 +to 5.27743e-006
Heightened Def Con from 5.27743e-006 to 5.27743e-006
Heightened Def Con from 5.27743e-006 to 5.27743e-006
Heightened Def Con from 5.27743e-006 +to 5.27743e-006
Heightened Def Con from 5.27743e-006 to 5.27743e-006
Heightened Def Con from 5.27743e-006 +to 5.27743e-006
Heightened Def Con from 5.27743e-006 to 5.27743e-006
Heightened Def Con from 5.27743e-006 +to 5.27743e-006
Heightened Def Con from 5.27743e-006 ++to 5.27743e-006
Heightened Def Con from 5.27743e-006 to 5.27743e-006
Heightened Def Con from 5.27743e-006 to 5.27743e-006
Heightened Def Con from 5.27743e-006 to 5.27743e-006
Heightened Def Con from 5.27743e-006 to 5.27743e-006
Heightened Def Con from 5.27743e-006 +to 5.27743e-006
Heightened Def Con from 5.27743e-006 ++to 5.27743e-006
Heightened Def Con from 5.27743e-006 to 5.27743e-006
Heightened Def Con from 5.27743e-006 to 5.27743e-006
Heightened Def Con from 5.27743e-006 to 5.27743e-006
Heightened Def Con from 5.27743e-006 to 5.27743e-006
Heightened Def Con from 5.27743e-006 +to 5.27743e-006
Heightened Def Con from 5.27743e-006 +++++to 5.27743e-006
Heightened Def Con from 5.3073e-006 +to 5.3073e-006
Heightened Def Con from 5.3073e-006 to 5.3073e-006
Heightened Def Con from 5.36731e-006 to 5.36731e-006
Heightened Def Con from 5.36782e-006 +++to 5.36782e-006
Heightened Def Con from 5.36782e-006 ++++++to 5.36782e-006
Heightened Def Con from 5.37743e-006 to 5.37743e-006
Heightened Def Con from 5.37743e-006 ++to 5.37743e-006
Heightened Def Con from 5.37743e-006 to 5.37743e-006
Heightened Def Con from 5.37743e-006 to 5.37743e-006
Heightened Def Con from 5.37743e-006 to 5.37743e-006
Heightened Def Con from 5.37743e-006 to 5.37743e-006
Heightened Def Con from 5.37743e-006 +to 5.37743e-006
Heightened Def Con from 5.37743e-006 to 5.37743e-006
Heightened Def Con from 5.37743e-006 ++to 5.37743e-006
Heightened Def Con from 5.37743e-006 +to 5.37743e-006
Heightened Def Con from 5.37743e-006 to 5.37743e-006
Heightened Def Con from 5.37743e-006 ++to 5.37743e-006
Heightened Def Con from 5.37743e-006 to 5.37743e-006
Heightened Def Con from 5.37743e-006 to 5.37743e-006
Heightened Def Con from 5.37743e-006 ++to 5.37743e-006
Heightened Def Con from 5.37743e-006 to 5.37743e-006
Heightened Def Con from 5.37743e-006 +to 5.37743e-006
Heightened Def Con from 5.37743e-006 +to 5.37743e-006
Heightened Def Con from 5.37743e-006 to 5.37743e-006
Heightened Def Con from 5.37743e-006 to 5.37743e-006
Heightened Def Con from 5.37743e-006 to 5.37743e-006
Heightened Def Con from 5.37743e-006 to 5.37743e-006
Heightened Def Con from 5.37743e-006 +++to 5.37743e-006
Heightened Def Con from 5.37743e-006 +to 5.37743e-006
Heightened Def Con from 5.37743e-006 to 5.37743e-006
Heightened Def Con from 5.37743e-006 to 5.37743e-006
Heightened Def Con from 5.37743e-006 to 5.37743e-006
Heightened Def Con from 5.37743e-006 to 5.37743e-006
Heightened Def Con from 5.37743e-006 +to 5.37743e-006
Heightened Def Con from 5.37743e-006 to 5.37743e-006
Heightened Def Con from 5.37743e-006 to 5.37743e-006
Heightened Def Con from 5.37743e-006 +to 5.37743e-006
Heightened Def Con from 5.37743e-006 to 5.37743e-006
Heightened Def Con from 5.37743e-006 to 5.37743e-006
Heightened Def Con from 5.37743e-006 to 5.37743e-006
Heightened Def Con from 5.37743e-006 to 5.37743e-006
Heightened Def Con from 5.37743e-006 ++to 5.37743e-006
Heightened Def Con from 5.37743e-006 +to 5.37743e-006
Heightened Def Con from 5.37743e-006 +to 5.37743e-006
Heightened Def Con from 5.37743e-006 to 5.37743e-006
Heightened Def Con from 5.37743e-006 +++++to 5.37743e-006
Heightened Def Con from 5.37743e-006 to 5.37743e-006
Heightened Def Con from 5.37743e-006 to 5.37743e-006
Heightened Def Con from 5.37743e-006 +++to 5.37743e-006
Heightened Def Con from 5.37743e-006 to 5.37743e-006
Heightened Def Con from 5.37743e-006 to 5.37743e-006
Heightened Def Con from 5.37743e-006 to 5.37743e-006
Heightened Def Con from 5.37743e-006 to 5.37743e-006
Heightened Def Con from 5.37743e-006 to 5.37743e-006
Heightened Def Con from 5.37743e-006 to 5.37743e-006
Heightened Def Con from 5.37743e-006 to 5.37743e-006
Heightened Def Con from 5.37743e-006 to 5.37743e-006
Heightened Def Con from 5.37743e-006 to 5.37743e-006
Heightened Def Con from 5.37743e-006 to 5.37743e-006
Heightened Def Con from 5.37743e-006 to 5.37743e-006
Heightened Def Con from 5.37743e-006 to 5.37743e-006
Heightened Def Con from 5.37743e-006 to 5.37743e-006
Heightened Def Con from 5.37743e-006 +to 5.37743e-006
Heightened Def Con from 5.37743e-006 to 5.37743e-006
Heightened Def Con from 5.37743e-006 +to 5.37743e-006
Heightened Def Con from 5.37743e-006 to 5.37743e-006
Heightened Def Con from 5.37743e-006 ++to 5.37743e-006
Heightened Def Con from 5.37743e-006 +++to 5.37743e-006
Heightened Def Con from 5.37743e-006 to 5.37743e-006
Heightened Def Con from 5.37743e-006 to 5.37743e-006
Heightened Def Con from 5.37743e-006 ++to 5.37743e-006
Heightened Def Con from 5.37743e-006 to 5.37743e-006
Heightened Def Con from 5.37743e-006 to 5.37743e-006
Heightened Def Con from 5.37743e-006 to 5.37743e-006
Heightened Def Con from 5.37743e-006 +to 5.37743e-006
Heightened Def Con from 5.37743e-006 +++++to 5.37743e-006
Heightened Def Con from 5.37743e-006 to 5.37743e-006
Heightened Def Con from 5.39941e-006 ++to 5.39941e-006
Heightened Def Con from 5.44731e-006 ++++++++++++++to 5.44731e-006
Heightened Def Con from 5.47743e-006 +to 5.47743e-006
Heightened Def Con from 5.47743e-006 to 5.47743e-006
Heightened Def Con from 5.49742e-006 to 5.49742e-006
Heightened Def Con from 5.5075e-006 to 5.5075e-006
Heightened Def Con from 5.52731e-006 to 5.52731e-006
Heightened Def Con from 5.52731e-006 +to 5.52731e-006
Heightened Def Con from 5.52731e-006 to 5.52731e-006
Heightened Def Con from 5.52731e-006 to 5.52731e-006
Heightened Def Con from 5.52731e-006 to 5.52731e-006
Heightened Def Con from 5.52731e-006 ++++++++++to 5.52731e-006
Heightened Def Con from 5.52731e-006 to 5.52731e-006
Heightened Def Con from 5.53743e-006 to 5.53743e-006
Heightened Def Con from 5.53743e-006 to 5.53743e-006
Heightened Def Con from 5.53743e-006 to 5.53743e-006
Heightened Def Con from 5.53743e-006 +to 5.53743e-006
Heightened Def Con from 5.53743e-006 to 5.53743e-006
Heightened Def Con from 5.53743e-006 ++to 5.53743e-006
Heightened Def Con from 5.53743e-006 ++to 5.53743e-006
Heightened Def Con from 5.53743e-006 to 5.53743e-006
Heightened Def Con from 5.53743e-006 +++++to 5.53743e-006
Heightened Def Con from 5.53743e-006 to 5.53743e-006
Heightened Def Con from 5.53743e-006 +to 5.53743e-006
Heightened Def Con from 5.53743e-006 to 5.53743e-006
Heightened Def Con from 5.53743e-006 to 5.53743e-006
Heightened Def Con from 5.53743e-006 to 5.53743e-006
Heightened Def Con from 5.53743e-006 to 5.53743e-006
Heightened Def Con from 5.53743e-006 +++to 5.53743e-006
Heightened Def Con from 5.53743e-006 ++to 5.53743e-006
Heightened Def Con from 5.53743e-006 ++to 5.53743e-006
Heightened Def Con from 5.53743e-006 ++++to 5.53743e-006
Heightened Def Con from 5.53743e-006 +++to 5.53743e-006
Heightened Def Con from 5.58732e-006 to 5.58732e-006
Heightened Def Con from 5.59741e-006 to 5.59741e-006
Heightened Def Con from 5.59741e-006 +++to 5.59741e-006
Heightened Def Con from 5.62731e-006 to 5.62731e-006
Heightened Def Con from 5.62731e-006 ++to 5.62731e-006
Heightened Def Con from 5.62731e-006 to 5.62731e-006
Heightened Def Con from 5.62731e-006 to 5.62731e-006
Heightened Def Con from 5.62731e-006 to 5.62731e-006
Heightened Def Con from 5.62731e-006 to 5.62731e-006
Heightened Def Con from 5.62731e-006 +++to 5.62731e-006
Heightened Def Con from 5.62731e-006 +to 5.62731e-006
Heightened Def Con from 5.62731e-006 to 5.62731e-006
Heightened Def Con from 5.62731e-006 to 5.62731e-006
Heightened Def Con from 5.62731e-006 +to 5.62731e-006
Heightened Def Con from 5.62731e-006 to 5.62731e-006
Heightened Def Con from 5.62731e-006 +++++++++to 5.62731e-006
Heightened Def Con from 5.62731e-006 to 5.62731e-006
Heightened Def Con from 5.62738e-006 to 5.62738e-006
Heightened Def Con from 5.64732e-006 +to 5.64732e-006
Heightened Def Con from 5.64732e-006 to 5.64732e-006
Heightened Def Con from 5.65744e-006 to 5.65744e-006
Heightened Def Con from 5.65744e-006 to 5.65744e-006
Heightened Def Con from 5.65744e-006 to 5.65744e-006
Heightened Def Con from 5.65744e-006 to 5.65744e-006
Heightened Def Con from 5.65744e-006 to 5.65744e-006
Heightened Def Con from 5.65744e-006 to 5.65744e-006
Heightened Def Con from 5.65744e-006 to 5.65744e-006
Heightened Def Con from 5.65744e-006 ++++to 5.65744e-006
Heightened Def Con from 5.65744e-006 to 5.65744e-006
Heightened Def Con from 5.66782e-006 to 5.66782e-006
Heightened Def Con from 5.66782e-006 to 5.66782e-006
Heightened Def Con from 5.7174e-006 to 5.7174e-006
Heightened Def Con from 5.7174e-006 +to 5.7174e-006
Heightened Def Con from 5.7174e-006 +to 5.7174e-006
Heightened Def Con from 5.7174e-006 to 5.7174e-006
Heightened Def Con from 5.7174e-006 +to 5.7174e-006
Heightened Def Con from 5.7174e-006 +to 5.7174e-006
Heightened Def Con from 5.7174e-006 ++++to 5.7174e-006
Heightened Def Con from 5.7174e-006 +to 5.7174e-006
Heightened Def Con from 5.7174e-006 +to 5.7174e-006
Heightened Def Con from 5.7174e-006 to 5.7174e-006
Heightened Def Con from 5.7174e-006 +to 5.7174e-006
Heightened Def Con from 5.7174e-006 +to 5.7174e-006
Heightened Def Con from 5.7174e-006 to 5.7174e-006
Heightened Def Con from 5.7174e-006 +to 5.7174e-006
Heightened Def Con from 5.7174e-006 +++++to 5.7174e-006
Heightened Def Con from 5.7174e-006 ++to 5.7174e-006
Heightened Def Con from 5.7174e-006 to 5.7174e-006
Heightened Def Con from 5.7174e-006 ++++to 5.7174e-006
Heightened Def Con from 5.7174e-006 to 5.7174e-006
Heightened Def Con from 5.7174e-006 +++to 5.7174e-006
Heightened Def Con from 5.7174e-006 ++to 5.7174e-006
Heightened Def Con from 5.7174e-006 to 5.7174e-006
Heightened Def Con from 5.7174e-006 to 5.7174e-006
Heightened Def Con from 5.7174e-006 +++to 5.7174e-006
Heightened Def Con from 5.7174e-006 +++++to 5.7174e-006
Heightened Def Con from 5.78732e-006 +to 5.78732e-006
Heightened Def Con from 5.79941e-006 to 5.79941e-006
Heightened Def Con from 5.79941e-006 +++to 5.79941e-006
Heightened Def Con from 5.79941e-006 ++++++to 5.79941e-006
Heightened Def Con from 5.82737e-006 +to 5.82737e-006
Heightened Def Con from 5.82737e-006 to 5.82737e-006
Heightened Def Con from 5.82737e-006 to 5.82737e-006
Heightened Def Con from 5.82737e-006 +to 5.82737e-006
Heightened Def Con from 5.82737e-006 +to 5.82737e-006
Heightened Def Con from 5.82737e-006 +to 5.82737e-006
Heightened Def Con from 5.82737e-006 to 5.82737e-006
Heightened Def Con from 5.82737e-006 ++++to 5.82737e-006
Heightened Def Con from 5.82737e-006 +++to 5.82737e-006
Heightened Def Con from 5.82737e-006 +++++++to 5.82737e-006
Heightened Def Con from 5.82737e-006 to 5.82737e-006
Heightened Def Con from 5.85743e-006 to 5.85743e-006
Heightened Def Con from 5.85743e-006 to 5.85743e-006
Heightened Def Con from 5.85743e-006 +to 5.85743e-006
Heightened Def Con from 5.85743e-006 to 5.85743e-006
Heightened Def Con from 5.85743e-006 to 5.85743e-006
Heightened Def Con from 5.85743e-006 +++to 5.85743e-006
Heightened Def Con from 5.85743e-006 to 5.85743e-006
Heightened Def Con from 5.85743e-006 to 5.85743e-006
Heightened Def Con from 5.85743e-006 to 5.85743e-006
Heightened Def Con from 5.85743e-006 to 5.85743e-006
Heightened Def Con from 5.85743e-006 to 5.85743e-006
Heightened Def Con from 5.85743e-006 to 5.85743e-006
Heightened Def Con from 5.85743e-006 to 5.85743e-006
Heightened Def Con from 5.85743e-006 +to 5.85743e-006
Heightened Def Con from 5.85743e-006 to 5.85743e-006
Heightened Def Con from 5.85743e-006 to 5.85743e-006
Heightened Def Con from 5.85743e-006 to 5.85743e-006
Heightened Def Con from 5.85743e-006 ++to 5.85743e-006
Heightened Def Con from 5.85743e-006 to 5.85743e-006
Heightened Def Con from 5.85743e-006 to 5.85743e-006
Heightened Def Con from 5.85743e-006 +++to 5.85743e-006
Heightened Def Con from 5.85743e-006 +to 5.85743e-006
Heightened Def Con from 5.85743e-006 +to 5.85743e-006
Heightened Def Con from 5.85743e-006 +to 5.85743e-006
Heightened Def Con from 5.85743e-006 ++to 5.85743e-006
Heightened Def Con from 5.85743e-006 +to 5.85743e-006
Heightened Def Con from 5.85743e-006 +++++to 5.85743e-006
Heightened Def Con from 5.85743e-006 +++++to 5.85743e-006
Heightened Def Con from 5.88732e-006 +to 5.88732e-006
Heightened Def Con from 5.88732e-006 to 5.88732e-006
Heightened Def Con from 5.88732e-006 to 5.88732e-006
Heightened Def Con from 5.88732e-006 to 5.88732e-006
Heightened Def Con from 5.88732e-006 +to 5.88732e-006
Heightened Def Con from 5.88732e-006 to 5.88732e-006
Heightened Def Con from 5.88732e-006 to 5.88732e-006
Heightened Def Con from 5.88732e-006 to 5.88732e-006
Heightened Def Con from 5.88732e-006 +++to 5.88732e-006
Heightened Def Con from 5.88732e-006 to 5.88732e-006
Heightened Def Con from 5.88732e-006 +to 5.88732e-006
Heightened Def Con from 5.88732e-006 to 5.88732e-006
Heightened Def Con from 5.88732e-006 +to 5.88732e-006
Heightened Def Con from 5.88732e-006 to 5.88732e-006
Heightened Def Con from 5.88732e-006 to 5.88732e-006
Heightened Def Con from 5.88732e-006 to 5.88732e-006
Heightened Def Con from 5.88732e-006 to 5.88732e-006
Heightened Def Con from 5.88732e-006 to 5.88732e-006
Heightened Def Con from 5.88732e-006 to 5.88732e-006
Heightened Def Con from 5.88732e-006 +to 5.88732e-006
Heightened Def Con from 5.88732e-006 to 5.88732e-006
Heightened Def Con from 5.88732e-006 +to 5.88732e-006
Heightened Def Con from 5.88732e-006 ++to 5.88732e-006
Heightened Def Con from 5.88732e-006 to 5.88732e-006
Heightened Def Con from 5.88732e-006 +to 5.88732e-006
Heightened Def Con from 5.88732e-006 to 5.88732e-006
Heightened Def Con from 5.88732e-006 to 5.88732e-006
Heightened Def Con from 5.88732e-006 to 5.88732e-006
Heightened Def Con from 5.88732e-006 to 5.88732e-006
Heightened Def Con from 5.88732e-006 to 5.88732e-006
Heightened Def Con from 5.88732e-006 ++++++++to 5.88732e-006
Heightened Def Con from 5.88732e-006 ++++to 5.88732e-006
Heightened Def Con from 5.88732e-006 ++to 5.88732e-006
Heightened Def Con from 5.88732e-006 to 5.88732e-006
Heightened Def Con from 5.88732e-006 +to 5.88732e-006
Heightened Def Con from 5.88732e-006 to 5.88732e-006
Heightened Def Con from 5.88732e-006 +to 5.88732e-006
Heightened Def Con from 5.88732e-006 to 5.88732e-006
Heightened Def Con from 5.88732e-006 +to 5.88732e-006
Heightened Def Con from 5.88732e-006 to 5.88732e-006
Heightened Def Con from 5.88732e-006 to 5.88732e-006
Heightened Def Con from 5.88732e-006 +to 5.88732e-006
Heightened Def Con from 5.88732e-006 +to 5.88732e-006
Heightened Def Con from 5.88732e-006 to 5.88732e-006
Heightened Def Con from 5.88732e-006 to 5.88732e-006
Heightened Def Con from 5.88732e-006 +to 5.88732e-006
Heightened Def Con from 5.88732e-006 +to 5.88732e-006
Heightened Def Con from 5.88732e-006 ++to 5.88732e-006
Heightened Def Con from 5.88732e-006 to 5.88732e-006
Heightened Def Con from 5.88732e-006 ++++to 5.88732e-006
Heightened Def Con from 5.88732e-006 to 5.88732e-006
Heightened Def Con from 5.88732e-006 +++to 5.88732e-006
Heightened Def Con from 5.88732e-006 to 5.88732e-006
Heightened Def Con from 5.88732e-006 to 5.88732e-006
Heightened Def Con from 5.88732e-006 to 5.88732e-006
Heightened Def Con from 5.88732e-006 ++to 5.88732e-006
Heightened Def Con from 5.88732e-006 +to 5.88732e-006
Heightened Def Con from 5.88732e-006 +++to 5.88732e-006
Heightened Def Con from 5.88732e-006 +to 5.88732e-006
Heightened Def Con from 5.88732e-006 to 5.88732e-006
Heightened Def Con from 5.88732e-006 +to 5.88732e-006
Heightened Def Con from 5.88732e-006 +++to 5.88732e-006
Heightened Def Con from 5.88732e-006 ++++to 5.88732e-006
Heightened Def Con from 5.88732e-006 to 5.88732e-006
Heightened Def Con from 5.88732e-006 to 5.88732e-006
Heightened Def Con from 5.88732e-006 to 5.88732e-006
Heightened Def Con from 5.88732e-006 to 5.88732e-006
Heightened Def Con from 5.88732e-006 to 5.88732e-006
Heightened Def Con from 5.88732e-006 to 5.88732e-006
Heightened Def Con from 5.88732e-006 +to 5.88732e-006
Heightened Def Con from 5.88732e-006 to 5.88732e-006
Heightened Def Con from 5.88732e-006 +to 5.88732e-006
Heightened Def Con from 5.88732e-006 +to 5.88732e-006
Heightened Def Con from 5.88732e-006 +++++++++++to 5.88732e-006
Heightened Def Con from 5.8974e-006 to 5.8974e-006
Heightened Def Con from 5.8974e-006 +++to 5.8974e-006

Date: Fri Jun 07 00:31:39 2024
Total elapsed time: 13.426 seconds.

tnom = 27
temp = 27
method = modified trap
totiter = 976828
traniter = 976795
tranpoints = 119451
accept = 45148
rejected = 80168
matrix size = 95
fillins = 67
solver = Normal
Thread vector: 10.8/6.9[4] 8.2/5.2[4] 2.8/3.1[1] 0.5/2.4[1]  2592/500
Matrix Compiler1: 6.98 KB object code size  3.4/1.8/[1.0]
Matrix Compiler2: 8.84 KB object code size  1.8/2.6/[0.6]

