Circuit: * Z:\home\ostoja\Elektronika\Projekti\DP_5V\simulacije\900_CMRR.asc

WARNING: Node N002 is floating.
WARNING: Node N003 is floating.
WARNING: Node N004 is floating.
WARNING: Node N019 is floating.
WARNING: Node N020 is floating.
WARNING: Node N021 is floating.

WARNING: Less than two connections to node 2.5V.  This node is used by V1.
WARNING: Less than two connections to node -2.5V.  This node is used by V2.
WARNING: Less than two connections to node 9V.  This node is used by V4.
WARNING: Less than two connections to node -9V.  This node is used by V6.
Direct Newton iteration failed to find .op point.  (Use ".option noopiter" to skip.)
Starting Gmin stepping
Gmin = 10
Gmin = 1.07374
vernier = 0.5
vernier = 0.25
vernier = 0.125
vernier = 0.0625
vernier = 0.03125
Gmin = 1.0412
vernier = 0.015625
vernier = 0.0078125
Gmin = 1.0132
vernier = 0.00390625
vernier = 0.00195313
Gmin = 1.00827
vernier = 0.00260417
vernier = 0.00130208
Gmin = 1.00515
vernier = 0.000651042
vernier = 0.000868055
vernier = 0.000434028
Gmin = 1.00434
vernier = 0.000578703
vernier = 0.000434027
Gmin = 1.00339
Gmin = 0
Gmin stepping failed

Starting source stepping with srcstepmethod=0
Source Step = 3.0303%
Source Step = 33.3333%
Source Step = 63.6364%
Source Step = 93.9394%
Source stepping succeeded in finding the operating point.

Heightened Def Con from 7.80635e-010 +to 7.80635e-010
Heightened Def Con from 7.80635e-010 to 7.80635e-010
Heightened Def Con from 7.80635e-010 +to 7.80635e-010
Heightened Def Con from 7.80635e-010 +to 7.80635e-010
Heightened Def Con from 7.80635e-010 to 7.80635e-010
Heightened Def Con from 7.80635e-010 +to 7.80635e-010
Heightened Def Con from 7.80635e-010 to 7.80635e-010
Heightened Def Con from 7.80635e-010 to 7.80635e-010
Heightened Def Con from 7.80635e-010 to 7.80635e-010
Heightened Def Con from 7.80635e-010 ++to 7.80635e-010
Heightened Def Con from 2.76965e-008 to 2.76965e-008
Heightened Def Con from 2.76965e-008 to 2.76965e-008
Heightened Def Con from 2.76965e-008 to 2.76965e-008
Heightened Def Con from 2.76965e-008 +to 2.76965e-008
Heightened Def Con from 2.76965e-008 to 2.76965e-008
Heightened Def Con from 2.76965e-008 to 2.76965e-008
Heightened Def Con from 2.76965e-008 to 2.76965e-008
Heightened Def Con from 2.76965e-008 to 2.76965e-008
Heightened Def Con from 2.76965e-008 ++to 2.76965e-008
Heightened Def Con from 2.76965e-008 to 2.76965e-008
Heightened Def Con from 2.76965e-008 to 2.76965e-008
Heightened Def Con from 2.76965e-008 +to 2.76965e-008
Heightened Def Con from 2.76965e-008 to 2.76965e-008
Heightened Def Con from 2.76965e-008 +to 2.76965e-008
Heightened Def Con from 2.76965e-008 to 2.76965e-008
Heightened Def Con from 2.76965e-008 to 2.76965e-008
Heightened Def Con from 2.76965e-008 to 2.76965e-008
Heightened Def Con from 2.76965e-008 to 2.76965e-008
Heightened Def Con from 2.76965e-008 +to 2.76965e-008
Heightened Def Con from 2.76965e-008 to 2.76965e-008
Heightened Def Con from 2.76965e-008 to 2.76965e-008
Heightened Def Con from 2.76965e-008 +to 2.76965e-008
Heightened Def Con from 2.76965e-008 to 2.76965e-008
Heightened Def Con from 2.76965e-008 to 2.76965e-008
Heightened Def Con from 2.76965e-008 +++++to 2.76965e-008
Heightened Def Con from 2.76965e-008 to 2.76965e-008
Heightened Def Con from 2.76965e-008 to 2.76965e-008
Heightened Def Con from 2.76965e-008 to 2.76965e-008
Heightened Def Con from 2.76965e-008 to 2.76965e-008
Heightened Def Con from 2.76965e-008 to 2.76965e-008
Heightened Def Con from 2.76965e-008 to 2.76965e-008
Heightened Def Con from 2.76965e-008 to 2.76965e-008
Heightened Def Con from 2.76965e-008 to 2.76965e-008
Heightened Def Con from 2.76965e-008 to 2.76965e-008
Heightened Def Con from 2.76965e-008 to 2.76965e-008
Heightened Def Con from 2.76965e-008 to 2.76965e-008
Heightened Def Con from 2.76965e-008 to 2.76965e-008
Heightened Def Con from 2.76965e-008 to 2.76965e-008
Heightened Def Con from 2.76965e-008 +to 2.76965e-008
Heightened Def Con from 2.76965e-008 to 2.76965e-008
Heightened Def Con from 2.76965e-008 +to 2.76965e-008
Heightened Def Con from 2.76965e-008 to 2.76965e-008
Heightened Def Con from 2.76965e-008 to 2.76965e-008
Heightened Def Con from 2.76965e-008 +to 2.76965e-008
Heightened Def Con from 2.76965e-008 +to 2.76965e-008
Heightened Def Con from 2.76965e-008 +to 2.76965e-008
Heightened Def Con from 2.76965e-008 +to 2.76965e-008
Heightened Def Con from 2.76965e-008 ++to 2.76965e-008
Heightened Def Con from 2.76965e-008 to 2.76965e-008
Heightened Def Con from 2.76965e-008 to 2.76965e-008
Heightened Def Con from 2.76965e-008 to 2.76965e-008
Heightened Def Con from 2.76965e-008 to 2.76965e-008
Heightened Def Con from 2.76965e-008 +to 2.76965e-008
Heightened Def Con from 2.76965e-008 to 2.76965e-008
Heightened Def Con from 2.76965e-008 +++to 2.76965e-008
Heightened Def Con from 2.76965e-008 +to 2.76965e-008
Heightened Def Con from 2.76965e-008 ++++++to 2.76965e-008
Heightened Def Con from 2.76965e-008 to 2.76965e-008
Heightened Def Con from 2.76965e-008 +to 2.76965e-008
Heightened Def Con from 2.76965e-008 +to 2.76965e-008
Heightened Def Con from 2.76965e-008 +to 2.76965e-008
Heightened Def Con from 2.76965e-008 to 2.76965e-008
Heightened Def Con from 2.76965e-008 to 2.76965e-008
Heightened Def Con from 2.76965e-008 to 2.76965e-008
Heightened Def Con from 2.76965e-008 ++to 2.76965e-008
Heightened Def Con from 2.76965e-008 to 2.76965e-008
Heightened Def Con from 2.76965e-008 +++++to 2.76965e-008
Heightened Def Con from 2.76965e-008 to 2.76965e-008
Heightened Def Con from 2.76965e-008 to 2.76965e-008
Heightened Def Con from 2.76965e-008 to 2.76965e-008
Heightened Def Con from 2.76965e-008 ++++++++++to 2.76965e-008
Heightened Def Con from 2.76965e-008 to 2.76965e-008
Heightened Def Con from 3.78167e-008 +to 3.78167e-008
Heightened Def Con from 3.78167e-008 to 3.78167e-008
Heightened Def Con from 4.77022e-008 to 4.77022e-008
Heightened Def Con from 4.77022e-008 to 4.77022e-008
Heightened Def Con from 4.77022e-008 to 4.77022e-008
Heightened Def Con from 4.77022e-008 to 4.77022e-008
Heightened Def Con from 4.77022e-008 ++++++to 4.77022e-008
Heightened Def Con from 4.77022e-008 to 4.77022e-008
Heightened Def Con from 4.77022e-008 to 4.77022e-008
Heightened Def Con from 4.77022e-008 +to 4.77022e-008
Heightened Def Con from 4.77022e-008 ++to 4.77022e-008
Heightened Def Con from 4.77022e-008 to 4.77022e-008
Heightened Def Con from 4.77022e-008 to 4.77022e-008
Heightened Def Con from 4.77022e-008 to 4.77022e-008
Heightened Def Con from 4.77022e-008 +to 4.77022e-008
Heightened Def Con from 4.77022e-008 ++to 4.77022e-008
Heightened Def Con from 4.77022e-008 ++++++++++to 4.77022e-008
Heightened Def Con from 5.782e-008 to 5.782e-008
Heightened Def Con from 5.782e-008 to 5.782e-008
Heightened Def Con from 5.782e-008 to 5.782e-008
Heightened Def Con from 5.782e-008 to 5.782e-008
Heightened Def Con from 5.782e-008 +to 5.782e-008
Heightened Def Con from 5.782e-008 +to 5.782e-008
Heightened Def Con from 5.782e-008 +to 5.782e-008
Heightened Def Con from 5.782e-008 +++to 5.782e-008
Heightened Def Con from 5.782e-008 to 5.782e-008
Heightened Def Con from 9.78291e-008 to 9.78291e-008
Heightened Def Con from 9.78291e-008 to 9.78291e-008
Heightened Def Con from 9.78291e-008 to 9.78291e-008
Heightened Def Con from 9.78291e-008 +to 9.78291e-008
Heightened Def Con from 9.78291e-008 to 9.78291e-008
Heightened Def Con from 9.78291e-008 ++to 9.78291e-008
Heightened Def Con from 9.78291e-008 +to 9.78291e-008
Heightened Def Con from 9.78291e-008 to 9.78291e-008
Heightened Def Con from 9.78291e-008 to 9.78291e-008
Heightened Def Con from 9.78291e-008 ++++to 9.78291e-008
Heightened Def Con from 9.8775e-008 +to 9.8775e-008
Heightened Def Con from 9.8775e-008 to 9.8775e-008
Heightened Def Con from 1.17823e-007 ++to 1.17823e-007
Heightened Def Con from 1.17823e-007 +to 1.17823e-007
Heightened Def Con from 1.17823e-007 +to 1.17823e-007
Heightened Def Con from 1.17823e-007 ++to 1.17823e-007
Heightened Def Con from 1.17823e-007 ++++to 1.17823e-007
Heightened Def Con from 1.27699e-007 +to 1.27699e-007
Heightened Def Con from 1.27699e-007 to 1.27699e-007
Heightened Def Con from 1.27699e-007 +to 1.27699e-007
Heightened Def Con from 1.27699e-007 to 1.27699e-007
Heightened Def Con from 1.27699e-007 to 1.27699e-007
Heightened Def Con from 1.27699e-007 to 1.27699e-007
Heightened Def Con from 1.27699e-007 ++to 1.27699e-007
Heightened Def Con from 1.27699e-007 +++++++++to 1.27699e-007
Heightened Def Con from 1.27699e-007 to 1.27699e-007
Heightened Def Con from 1.37816e-007 to 1.37816e-007
Heightened Def Con from 1.37816e-007 to 1.37816e-007
Heightened Def Con from 1.37816e-007 to 1.37816e-007
Heightened Def Con from 1.37816e-007 to 1.37816e-007
Heightened Def Con from 1.37816e-007 to 1.37816e-007
Heightened Def Con from 1.37816e-007 to 1.37816e-007
Heightened Def Con from 1.37816e-007 ++to 1.37816e-007
Heightened Def Con from 1.37816e-007 +to 1.37816e-007
Heightened Def Con from 1.37816e-007 +to 1.37816e-007
Heightened Def Con from 1.37816e-007 to 1.37816e-007
Heightened Def Con from 1.37816e-007 to 1.37816e-007
Heightened Def Con from 1.37816e-007 +++to 1.37816e-007
Heightened Def Con from 1.37816e-007 ++to 1.37816e-007
Heightened Def Con from 1.37816e-007 +++to 1.37816e-007
Heightened Def Con from 1.37816e-007 ++++to 1.37816e-007
Heightened Def Con from 1.37816e-007 to 1.37816e-007
Heightened Def Con from 1.37816e-007 to 1.37816e-007
Heightened Def Con from 1.37816e-007 +++to 1.37816e-007
Heightened Def Con from 1.37816e-007 +to 1.37816e-007
Heightened Def Con from 1.37816e-007 +to 1.37816e-007
Heightened Def Con from 1.37816e-007 to 1.37816e-007
Heightened Def Con from 1.37816e-007 to 1.37816e-007
Heightened Def Con from 1.37816e-007 to 1.37816e-007
Heightened Def Con from 1.37816e-007 +to 1.37816e-007
Heightened Def Con from 1.37816e-007 to 1.37816e-007
Heightened Def Con from 1.37816e-007 +to 1.37816e-007
Heightened Def Con from 1.37816e-007 to 1.37816e-007
Heightened Def Con from 1.37816e-007 +++to 1.37816e-007
Heightened Def Con from 1.37816e-007 +to 1.37816e-007
Heightened Def Con from 1.37816e-007 to 1.37816e-007
Heightened Def Con from 1.37816e-007 to 1.37816e-007
Heightened Def Con from 1.37816e-007 to 1.37816e-007
Heightened Def Con from 1.37816e-007 to 1.37816e-007
Heightened Def Con from 1.37816e-007 to 1.37816e-007
Heightened Def Con from 1.37816e-007 to 1.37816e-007
Heightened Def Con from 1.37816e-007 +++to 1.37816e-007
Heightened Def Con from 1.37816e-007 ++to 1.37816e-007
Heightened Def Con from 1.37816e-007 to 1.37816e-007
Heightened Def Con from 1.37816e-007 to 1.37816e-007
Heightened Def Con from 1.37816e-007 +to 1.37816e-007
Heightened Def Con from 1.37816e-007 to 1.37816e-007
Heightened Def Con from 1.37816e-007 ++to 1.37816e-007
Heightened Def Con from 1.37816e-007 to 1.37816e-007
Heightened Def Con from 1.37816e-007 ++to 1.37816e-007
Heightened Def Con from 1.37816e-007 ++to 1.37816e-007
Heightened Def Con from 1.37816e-007 +++to 1.37816e-007
Heightened Def Con from 1.37816e-007 to 1.37816e-007
Heightened Def Con from 1.37816e-007 to 1.37816e-007
Heightened Def Con from 1.37816e-007 +++++to 1.37816e-007
Heightened Def Con from 1.67696e-007 to 1.67696e-007
Heightened Def Con from 1.67696e-007 to 1.67696e-007
Heightened Def Con from 1.67696e-007 to 1.67696e-007
Heightened Def Con from 1.67696e-007 to 1.67696e-007
Heightened Def Con from 1.67696e-007 to 1.67696e-007
Heightened Def Con from 1.67696e-007 to 1.67696e-007
Heightened Def Con from 1.67696e-007 to 1.67696e-007
Heightened Def Con from 1.67696e-007 ++++++to 1.67696e-007
Heightened Def Con from 1.67696e-007 to 1.67696e-007
Heightened Def Con from 1.77827e-007 +to 1.77827e-007
Heightened Def Con from 1.77827e-007 to 1.77827e-007
Heightened Def Con from 1.77827e-007 ++++to 1.77827e-007
Heightened Def Con from 1.77827e-007 ++++to 1.77827e-007
Heightened Def Con from 1.87688e-007 to 1.87688e-007
Heightened Def Con from 1.87688e-007 +++to 1.87688e-007
Heightened Def Con from 1.87688e-007 to 1.87688e-007
Heightened Def Con from 1.87688e-007 to 1.87688e-007
Heightened Def Con from 1.87688e-007 to 1.87688e-007
Heightened Def Con from 1.87688e-007 to 1.87688e-007
Heightened Def Con from 1.87688e-007 to 1.87688e-007
Heightened Def Con from 1.87688e-007 to 1.87688e-007
Heightened Def Con from 1.87688e-007 to 1.87688e-007
Heightened Def Con from 1.87688e-007 to 1.87688e-007
Heightened Def Con from 1.87688e-007 +to 1.87688e-007
Heightened Def Con from 1.87688e-007 to 1.87688e-007
Heightened Def Con from 1.87688e-007 to 1.87688e-007
Heightened Def Con from 1.87688e-007 to 1.87688e-007
Heightened Def Con from 1.87688e-007 to 1.87688e-007
Heightened Def Con from 1.87688e-007 to 1.87688e-007
Heightened Def Con from 1.87688e-007 ++to 1.87688e-007
Heightened Def Con from 1.87688e-007 +++to 1.87688e-007
Heightened Def Con from 1.87688e-007 ++to 1.87688e-007
Heightened Def Con from 1.87688e-007 +to 1.87688e-007
Heightened Def Con from 1.87688e-007 to 1.87688e-007
Heightened Def Con from 1.87688e-007 to 1.87688e-007
Heightened Def Con from 1.87688e-007 to 1.87688e-007
Heightened Def Con from 1.87688e-007 +to 1.87688e-007
Heightened Def Con from 1.87688e-007 ++to 1.87688e-007
Heightened Def Con from 1.87688e-007 +to 1.87688e-007
Heightened Def Con from 1.87688e-007 ++to 1.87688e-007
Heightened Def Con from 1.87688e-007 ++to 1.87688e-007
Heightened Def Con from 1.87688e-007 to 1.87688e-007
Heightened Def Con from 1.87688e-007 to 1.87688e-007
Heightened Def Con from 1.87688e-007 to 1.87688e-007
Heightened Def Con from 1.87688e-007 to 1.87688e-007
Heightened Def Con from 1.87688e-007 to 1.87688e-007
Heightened Def Con from 1.87688e-007 ++++++to 1.87688e-007
Heightened Def Con from 1.87688e-007 to 1.87688e-007
Heightened Def Con from 1.97829e-007 to 1.97829e-007
Heightened Def Con from 2.27699e-007 to 2.27699e-007
Heightened Def Con from 2.27699e-007 +to 2.27699e-007
Heightened Def Con from 2.27699e-007 +to 2.27699e-007
Heightened Def Con from 2.27699e-007 to 2.27699e-007
Heightened Def Con from 2.27699e-007 to 2.27699e-007
Heightened Def Con from 2.27699e-007 ++to 2.27699e-007
Heightened Def Con from 2.27699e-007 ++to 2.27699e-007
Heightened Def Con from 2.27699e-007 ++to 2.27699e-007
Heightened Def Con from 2.27699e-007 ++to 2.27699e-007
Heightened Def Con from 2.27699e-007 to 2.27699e-007
Heightened Def Con from 2.27699e-007 +to 2.27699e-007
Heightened Def Con from 2.27699e-007 to 2.27699e-007
Heightened Def Con from 2.27699e-007 to 2.27699e-007
Heightened Def Con from 2.27699e-007 ++to 2.27699e-007
Heightened Def Con from 2.27699e-007 to 2.27699e-007
Heightened Def Con from 2.27699e-007 to 2.27699e-007
Heightened Def Con from 2.27699e-007 to 2.27699e-007
Heightened Def Con from 2.27699e-007 to 2.27699e-007
Heightened Def Con from 2.27699e-007 +++++to 2.27699e-007
Heightened Def Con from 2.27699e-007 ++to 2.27699e-007
Heightened Def Con from 2.27699e-007 +to 2.27699e-007
Heightened Def Con from 2.27699e-007 to 2.27699e-007
Heightened Def Con from 2.27699e-007 to 2.27699e-007
Heightened Def Con from 2.27699e-007 +to 2.27699e-007
Heightened Def Con from 2.27699e-007 +to 2.27699e-007
Heightened Def Con from 2.27699e-007 to 2.27699e-007
Heightened Def Con from 2.27699e-007 to 2.27699e-007
Heightened Def Con from 2.27699e-007 to 2.27699e-007
Heightened Def Con from 2.27699e-007 to 2.27699e-007
Heightened Def Con from 2.27699e-007 ++to 2.27699e-007
Heightened Def Con from 2.27699e-007 to 2.27699e-007
Heightened Def Con from 2.27699e-007 to 2.27699e-007
Heightened Def Con from 2.27699e-007 to 2.27699e-007
Heightened Def Con from 2.27699e-007 +to 2.27699e-007
Heightened Def Con from 2.27699e-007 to 2.27699e-007
Heightened Def Con from 2.27699e-007 to 2.27699e-007
Heightened Def Con from 2.27699e-007 to 2.27699e-007
Heightened Def Con from 2.27699e-007 to 2.27699e-007
Heightened Def Con from 2.27699e-007 to 2.27699e-007
Heightened Def Con from 2.27699e-007 +to 2.27699e-007
Heightened Def Con from 2.27699e-007 +to 2.27699e-007
Heightened Def Con from 2.27699e-007 +to 2.27699e-007
Heightened Def Con from 2.27699e-007 +to 2.27699e-007
Heightened Def Con from 2.27699e-007 to 2.27699e-007
Heightened Def Con from 2.27699e-007 to 2.27699e-007
Heightened Def Con from 2.27699e-007 to 2.27699e-007
Heightened Def Con from 2.27699e-007 to 2.27699e-007
Heightened Def Con from 2.27699e-007 ++to 2.27699e-007
Heightened Def Con from 2.27699e-007 to 2.27699e-007
Heightened Def Con from 2.27699e-007 to 2.27699e-007
Heightened Def Con from 2.27699e-007 +++++to 2.27699e-007
Heightened Def Con from 2.27699e-007 ++to 2.27699e-007
Heightened Def Con from 2.27699e-007 to 2.27699e-007
Heightened Def Con from 2.27699e-007 ++to 2.27699e-007
Heightened Def Con from 2.27699e-007 to 2.27699e-007
Heightened Def Con from 2.27699e-007 +to 2.27699e-007
Heightened Def Con from 2.27699e-007 to 2.27699e-007
Heightened Def Con from 2.27699e-007 to 2.27699e-007
Heightened Def Con from 2.27699e-007 +to 2.27699e-007
Heightened Def Con from 2.27699e-007 to 2.27699e-007
Heightened Def Con from 2.27699e-007 +++++to 2.27699e-007
Heightened Def Con from 2.27699e-007 +to 2.27699e-007
Heightened Def Con from 2.27699e-007 +to 2.27699e-007
Heightened Def Con from 2.27699e-007 to 2.27699e-007
Heightened Def Con from 2.27699e-007 +to 2.27699e-007
Heightened Def Con from 2.27699e-007 +to 2.27699e-007
Heightened Def Con from 2.27699e-007 to 2.27699e-007
Heightened Def Con from 2.27699e-007 to 2.27699e-007
Heightened Def Con from 2.27699e-007 ++++++to 2.27699e-007
Heightened Def Con from 2.27699e-007 +to 2.27699e-007
Heightened Def Con from 2.27699e-007 +to 2.27699e-007
Heightened Def Con from 2.27699e-007 to 2.27699e-007
Heightened Def Con from 2.27699e-007 ++++++++++to 2.27699e-007
Heightened Def Con from 2.27699e-007 to 2.27699e-007
Heightened Def Con from 2.67696e-007 to 2.67696e-007
Heightened Def Con from 2.77827e-007 to 2.77827e-007
Heightened Def Con from 2.77827e-007 +to 2.77827e-007
Heightened Def Con from 2.77827e-007 to 2.77827e-007
Heightened Def Con from 2.77827e-007 +to 2.77827e-007
Heightened Def Con from 2.77827e-007 to 2.77827e-007
Heightened Def Con from 2.77827e-007 to 2.77827e-007
Heightened Def Con from 2.77827e-007 to 2.77827e-007
Heightened Def Con from 2.77827e-007 to 2.77827e-007
Heightened Def Con from 2.77827e-007 to 2.77827e-007
Heightened Def Con from 2.77827e-007 to 2.77827e-007
Heightened Def Con from 2.77827e-007 to 2.77827e-007
Heightened Def Con from 2.77827e-007 +++to 2.77827e-007
Heightened Def Con from 2.77827e-007 +to 2.77827e-007
Heightened Def Con from 2.77827e-007 ++to 2.77827e-007
Heightened Def Con from 2.77827e-007 ++++to 2.77827e-007
Heightened Def Con from 2.77827e-007 +++to 2.77827e-007
Heightened Def Con from 2.77827e-007 to 2.77827e-007
Heightened Def Con from 2.87688e-007 to 2.87688e-007
Heightened Def Con from 2.87688e-007 ++to 2.87688e-007
Heightened Def Con from 2.87688e-007 to 2.87688e-007
Heightened Def Con from 2.87688e-007 ++to 2.87688e-007
Heightened Def Con from 2.87688e-007 ++to 2.87688e-007
Heightened Def Con from 2.87688e-007 to 2.87688e-007
Heightened Def Con from 2.87688e-007 +to 2.87688e-007
Heightened Def Con from 2.87688e-007 to 2.87688e-007
Heightened Def Con from 2.87688e-007 to 2.87688e-007
Heightened Def Con from 2.87688e-007 to 2.87688e-007
Heightened Def Con from 2.87688e-007 to 2.87688e-007
Heightened Def Con from 2.87688e-007 to 2.87688e-007
Heightened Def Con from 2.87688e-007 to 2.87688e-007
Heightened Def Con from 2.87688e-007 to 2.87688e-007
Heightened Def Con from 2.87688e-007 to 2.87688e-007
Heightened Def Con from 2.87688e-007 +++to 2.87688e-007
Heightened Def Con from 2.87688e-007 +to 2.87688e-007
Heightened Def Con from 2.87688e-007 ++to 2.87688e-007
Heightened Def Con from 2.87688e-007 ++to 2.87688e-007
Heightened Def Con from 2.87688e-007 to 2.87688e-007
Heightened Def Con from 2.87688e-007 to 2.87688e-007
Heightened Def Con from 2.87688e-007 to 2.87688e-007
Heightened Def Con from 2.87688e-007 to 2.87688e-007
Heightened Def Con from 2.87688e-007 to 2.87688e-007
Heightened Def Con from 2.87688e-007 +to 2.87688e-007
Heightened Def Con from 2.87688e-007 to 2.87688e-007
Heightened Def Con from 2.87688e-007 to 2.87688e-007
Heightened Def Con from 2.87688e-007 +++to 2.87688e-007
Heightened Def Con from 2.87688e-007 to 2.87688e-007
Heightened Def Con from 2.87688e-007 to 2.87688e-007
Heightened Def Con from 2.87688e-007 to 2.87688e-007
Heightened Def Con from 2.87688e-007 ++++to 2.87688e-007
Heightened Def Con from 2.87688e-007 +to 2.87688e-007
Heightened Def Con from 2.87688e-007 to 2.87688e-007
Heightened Def Con from 2.87688e-007 to 2.87688e-007
Heightened Def Con from 2.87688e-007 +++++++to 2.87688e-007
Heightened Def Con from 2.97829e-007 to 2.97829e-007
Heightened Def Con from 2.98775e-007 to 2.98775e-007
Heightened Def Con from 2.98775e-007 to 2.98775e-007
Heightened Def Con from 3.27699e-007 to 3.27699e-007
Heightened Def Con from 3.27699e-007 +to 3.27699e-007
Heightened Def Con from 3.27699e-007 ++to 3.27699e-007
Heightened Def Con from 3.27699e-007 to 3.27699e-007
Heightened Def Con from 3.27699e-007 to 3.27699e-007
Heightened Def Con from 3.27699e-007 ++to 3.27699e-007
Heightened Def Con from 3.27699e-007 to 3.27699e-007
Heightened Def Con from 3.27699e-007 to 3.27699e-007
Heightened Def Con from 3.27699e-007 to 3.27699e-007
Heightened Def Con from 3.27699e-007 to 3.27699e-007
Heightened Def Con from 3.27699e-007 +++to 3.27699e-007
Heightened Def Con from 3.27699e-007 to 3.27699e-007
Heightened Def Con from 3.27699e-007 +++++to 3.27699e-007
Heightened Def Con from 3.27699e-007 to 3.27699e-007
Heightened Def Con from 3.27699e-007 to 3.27699e-007
Heightened Def Con from 3.27699e-007 to 3.27699e-007
Heightened Def Con from 3.27699e-007 +to 3.27699e-007
Heightened Def Con from 3.27699e-007 to 3.27699e-007
Heightened Def Con from 3.27699e-007 to 3.27699e-007
Heightened Def Con from 3.27699e-007 +to 3.27699e-007
Heightened Def Con from 3.27699e-007 to 3.27699e-007
Heightened Def Con from 3.27699e-007 to 3.27699e-007
Heightened Def Con from 3.27699e-007 to 3.27699e-007
Heightened Def Con from 3.27699e-007 +to 3.27699e-007
Heightened Def Con from 3.27699e-007 to 3.27699e-007
Heightened Def Con from 3.27699e-007 +to 3.27699e-007
Heightened Def Con from 3.27699e-007 to 3.27699e-007
Heightened Def Con from 3.27699e-007 ++++to 3.27699e-007
Heightened Def Con from 3.27699e-007 +to 3.27699e-007
Heightened Def Con from 3.27699e-007 to 3.27699e-007
Heightened Def Con from 3.27699e-007 +++to 3.27699e-007
Heightened Def Con from 3.27699e-007 to 3.27699e-007
Heightened Def Con from 3.27699e-007 to 3.27699e-007
Heightened Def Con from 3.27699e-007 to 3.27699e-007
Heightened Def Con from 3.27699e-007 to 3.27699e-007
Heightened Def Con from 3.27699e-007 to 3.27699e-007
Heightened Def Con from 3.27699e-007 to 3.27699e-007
Heightened Def Con from 3.27699e-007 to 3.27699e-007
Heightened Def Con from 3.27699e-007 +to 3.27699e-007
Heightened Def Con from 3.27699e-007 to 3.27699e-007
Heightened Def Con from 3.27699e-007 to 3.27699e-007
Heightened Def Con from 3.27699e-007 to 3.27699e-007
Heightened Def Con from 3.27699e-007 to 3.27699e-007
Heightened Def Con from 3.27699e-007 +++++++to 3.27699e-007
Heightened Def Con from 3.27699e-007 to 3.27699e-007
Heightened Def Con from 3.37816e-007 to 3.37816e-007
Heightened Def Con from 3.37816e-007 to 3.37816e-007
Heightened Def Con from 3.37816e-007 to 3.37816e-007
Heightened Def Con from 3.37816e-007 to 3.37816e-007
Heightened Def Con from 3.37816e-007 +to 3.37816e-007
Heightened Def Con from 3.37816e-007 to 3.37816e-007
Heightened Def Con from 3.37816e-007 +to 3.37816e-007
Heightened Def Con from 3.37816e-007 to 3.37816e-007
Heightened Def Con from 3.37816e-007 +++to 3.37816e-007
Heightened Def Con from 3.37816e-007 to 3.37816e-007
Heightened Def Con from 3.37816e-007 to 3.37816e-007
Heightened Def Con from 3.37816e-007 to 3.37816e-007
Heightened Def Con from 3.37816e-007 to 3.37816e-007
Heightened Def Con from 3.37816e-007 to 3.37816e-007
Heightened Def Con from 3.37816e-007 ++to 3.37816e-007
Heightened Def Con from 3.37816e-007 +to 3.37816e-007
Heightened Def Con from 3.37816e-007 to 3.37816e-007
Heightened Def Con from 3.37816e-007 +to 3.37816e-007
Heightened Def Con from 3.37816e-007 to 3.37816e-007
Heightened Def Con from 3.37816e-007 to 3.37816e-007
Heightened Def Con from 3.37816e-007 ++++++to 3.37816e-007
Heightened Def Con from 3.37816e-007 to 3.37816e-007
Heightened Def Con from 3.67696e-007 to 3.67696e-007
Heightened Def Con from 3.67696e-007 to 3.67696e-007
Heightened Def Con from 3.67696e-007 to 3.67696e-007
Heightened Def Con from 3.67696e-007 to 3.67696e-007
Heightened Def Con from 3.67696e-007 ++to 3.67696e-007
Heightened Def Con from 3.67696e-007 +to 3.67696e-007
Heightened Def Con from 3.67696e-007 ++to 3.67696e-007
Heightened Def Con from 3.67696e-007 to 3.67696e-007
Heightened Def Con from 3.67696e-007 ++to 3.67696e-007
Heightened Def Con from 3.67696e-007 ++to 3.67696e-007
Heightened Def Con from 3.67696e-007 ++++to 3.67696e-007
Heightened Def Con from 3.67696e-007 ++++++to 3.67696e-007
Heightened Def Con from 3.67696e-007 +to 3.67696e-007
Heightened Def Con from 3.9783e-007 to 3.9783e-007
Heightened Def Con from 3.9783e-007 to 3.9783e-007
Heightened Def Con from 3.9783e-007 +++to 3.9783e-007
Heightened Def Con from 3.9783e-007 to 3.9783e-007
Heightened Def Con from 3.9783e-007 to 3.9783e-007
Heightened Def Con from 3.98775e-007 to 3.98775e-007
Heightened Def Con from 4.17822e-007 to 4.17822e-007
Heightened Def Con from 4.17822e-007 ++++to 4.17822e-007
Heightened Def Con from 4.17822e-007 +++to 4.17822e-007
Heightened Def Con from 4.17822e-007 to 4.17822e-007
Heightened Def Con from 4.17822e-007 to 4.17822e-007
Heightened Def Con from 4.17822e-007 to 4.17822e-007
Heightened Def Con from 4.17822e-007 ++++to 4.17822e-007
Heightened Def Con from 4.17822e-007 +to 4.17822e-007
Heightened Def Con from 4.17822e-007 to 4.17822e-007
Heightened Def Con from 4.17822e-007 to 4.17822e-007
Heightened Def Con from 4.17822e-007 to 4.17822e-007
Heightened Def Con from 4.17822e-007 ++++to 4.17822e-007
Heightened Def Con from 4.17822e-007 to 4.17822e-007
Heightened Def Con from 4.17822e-007 +to 4.17822e-007
Heightened Def Con from 4.17822e-007 to 4.17822e-007
Heightened Def Con from 4.17822e-007 ++++to 4.17822e-007
Heightened Def Con from 4.17822e-007 ++++to 4.17822e-007
Heightened Def Con from 4.17822e-007 +to 4.17822e-007
Heightened Def Con from 4.17822e-007 to 4.17822e-007
Heightened Def Con from 4.27699e-007 +to 4.27699e-007
Heightened Def Con from 4.27699e-007 +to 4.27699e-007
Heightened Def Con from 4.27699e-007 to 4.27699e-007
Heightened Def Con from 4.27699e-007 to 4.27699e-007
Heightened Def Con from 4.27699e-007 to 4.27699e-007
Heightened Def Con from 4.27699e-007 to 4.27699e-007
Heightened Def Con from 4.27699e-007 +to 4.27699e-007
Heightened Def Con from 4.27699e-007 +++to 4.27699e-007
Heightened Def Con from 4.27699e-007 to 4.27699e-007
Heightened Def Con from 4.27699e-007 to 4.27699e-007
Heightened Def Con from 4.27699e-007 +++++++to 4.27699e-007
Heightened Def Con from 4.27699e-007 to 4.27699e-007
Heightened Def Con from 4.67696e-007 +to 4.67696e-007
Heightened Def Con from 4.67696e-007 to 4.67696e-007
Heightened Def Con from 4.67696e-007 to 4.67696e-007
Heightened Def Con from 4.67696e-007 ++++++to 4.67696e-007
Heightened Def Con from 4.67696e-007 ++to 4.67696e-007
Heightened Def Con from 4.67696e-007 to 4.67696e-007
Heightened Def Con from 4.98775e-007 +to 4.98775e-007
Heightened Def Con from 4.98775e-007 to 4.98775e-007
Heightened Def Con from 5.07691e-007 to 5.07691e-007
Heightened Def Con from 5.27699e-007 +++to 5.27699e-007
Heightened Def Con from 5.27699e-007 +++to 5.27699e-007
Heightened Def Con from 5.27699e-007 to 5.27699e-007
Heightened Def Con from 5.27699e-007 to 5.27699e-007
Heightened Def Con from 5.27699e-007 to 5.27699e-007
Heightened Def Con from 5.27699e-007 to 5.27699e-007
Heightened Def Con from 5.27699e-007 to 5.27699e-007
Heightened Def Con from 5.27699e-007 to 5.27699e-007
Heightened Def Con from 5.27699e-007 to 5.27699e-007
Heightened Def Con from 5.27699e-007 to 5.27699e-007
Heightened Def Con from 5.27699e-007 to 5.27699e-007
Heightened Def Con from 5.27699e-007 to 5.27699e-007
Heightened Def Con from 5.27699e-007 to 5.27699e-007
Heightened Def Con from 5.27699e-007 to 5.27699e-007
Heightened Def Con from 5.27699e-007 to 5.27699e-007
Heightened Def Con from 5.27699e-007 to 5.27699e-007
Heightened Def Con from 5.27699e-007 +++++++to 5.27699e-007
Heightened Def Con from 5.27699e-007 to 5.27699e-007
Heightened Def Con from 5.67696e-007 ++to 5.67696e-007
Heightened Def Con from 5.67696e-007 +to 5.67696e-007
Heightened Def Con from 5.67696e-007 to 5.67696e-007
Heightened Def Con from 5.67696e-007 to 5.67696e-007
Heightened Def Con from 5.67696e-007 ++to 5.67696e-007
Heightened Def Con from 5.67696e-007 +to 5.67696e-007
Heightened Def Con from 5.67696e-007 ++to 5.67696e-007
Heightened Def Con from 5.67696e-007 ++++++to 5.67696e-007
Heightened Def Con from 5.67696e-007 ++++++to 5.67696e-007
Heightened Def Con from 5.67696e-007 to 5.67696e-007
Heightened Def Con from 5.77827e-007 +to 5.77827e-007
Heightened Def Con from 5.77827e-007 ++to 5.77827e-007
Heightened Def Con from 5.77827e-007 +++to 5.77827e-007
Heightened Def Con from 5.77827e-007 to 5.77827e-007
Heightened Def Con from 5.77827e-007 ++to 5.77827e-007
Heightened Def Con from 5.77827e-007 to 5.77827e-007
Heightened Def Con from 5.77827e-007 +to 5.77827e-007
Heightened Def Con from 5.77827e-007 ++to 5.77827e-007
Heightened Def Con from 5.77827e-007 +to 5.77827e-007
Heightened Def Con from 5.77827e-007 to 5.77827e-007
Heightened Def Con from 5.77827e-007 to 5.77827e-007
Heightened Def Con from 5.77827e-007 to 5.77827e-007
Heightened Def Con from 5.77827e-007 +to 5.77827e-007
Heightened Def Con from 5.77827e-007 to 5.77827e-007
Heightened Def Con from 5.77827e-007 +++to 5.77827e-007
Heightened Def Con from 5.77827e-007 ++++to 5.77827e-007
Heightened Def Con from 5.77827e-007 to 5.77827e-007
Heightened Def Con from 5.77827e-007 ++to 5.77827e-007
Heightened Def Con from 5.77827e-007 +to 5.77827e-007
Heightened Def Con from 5.77827e-007 to 5.77827e-007
Heightened Def Con from 5.77827e-007 ++to 5.77827e-007
Heightened Def Con from 5.77827e-007 to 5.77827e-007
Heightened Def Con from 5.77827e-007 to 5.77827e-007
Heightened Def Con from 5.77827e-007 ++to 5.77827e-007
Heightened Def Con from 5.77827e-007 +to 5.77827e-007
Heightened Def Con from 5.77827e-007 ++++to 5.77827e-007
Heightened Def Con from 5.77827e-007 +++++to 5.77827e-007
Heightened Def Con from 5.87688e-007 to 5.87688e-007
Heightened Def Con from 5.88127e-007 to 5.88127e-007
Heightened Def Con from 5.97829e-007 to 5.97829e-007
Heightened Def Con from 5.97829e-007 to 5.97829e-007
Heightened Def Con from 5.97829e-007 to 5.97829e-007
Heightened Def Con from 5.97829e-007 to 5.97829e-007
Heightened Def Con from 5.97829e-007 to 5.97829e-007
Heightened Def Con from 5.97829e-007 to 5.97829e-007
Heightened Def Con from 5.97829e-007 to 5.97829e-007
Heightened Def Con from 5.97829e-007 +to 5.97829e-007
Heightened Def Con from 5.97829e-007 to 5.97829e-007
Heightened Def Con from 5.97829e-007 to 5.97829e-007
Heightened Def Con from 5.97829e-007 to 5.97829e-007
Heightened Def Con from 5.97829e-007 +++to 5.97829e-007
Heightened Def Con from 5.97829e-007 to 5.97829e-007
Heightened Def Con from 5.97829e-007 +++++to 5.97829e-007
Heightened Def Con from 5.97829e-007 ++to 5.97829e-007
Heightened Def Con from 5.97829e-007 ++++to 5.97829e-007
Heightened Def Con from 5.97829e-007 to 5.97829e-007
Heightened Def Con from 5.98775e-007 to 5.98775e-007
Heightened Def Con from 6.17823e-007 to 6.17823e-007
Heightened Def Con from 6.17823e-007 to 6.17823e-007
Heightened Def Con from 6.17823e-007 to 6.17823e-007
Heightened Def Con from 6.17823e-007 to 6.17823e-007
Heightened Def Con from 6.17823e-007 +to 6.17823e-007
Heightened Def Con from 6.17823e-007 to 6.17823e-007
Heightened Def Con from 6.17823e-007 to 6.17823e-007
Heightened Def Con from 6.17823e-007 to 6.17823e-007
Heightened Def Con from 6.17823e-007 to 6.17823e-007
Heightened Def Con from 6.17823e-007 ++++to 6.17823e-007
Heightened Def Con from 6.17823e-007 +to 6.17823e-007
Heightened Def Con from 6.17823e-007 to 6.17823e-007
Heightened Def Con from 6.17823e-007 to 6.17823e-007
Heightened Def Con from 6.17823e-007 to 6.17823e-007
Heightened Def Con from 6.17823e-007 to 6.17823e-007
Heightened Def Con from 6.17823e-007 +to 6.17823e-007
Heightened Def Con from 6.17823e-007 to 6.17823e-007
Heightened Def Con from 6.17823e-007 to 6.17823e-007
Heightened Def Con from 6.17823e-007 +to 6.17823e-007
Heightened Def Con from 6.17823e-007 to 6.17823e-007
Heightened Def Con from 6.17823e-007 ++to 6.17823e-007
Heightened Def Con from 6.17823e-007 +to 6.17823e-007
Heightened Def Con from 6.17823e-007 +to 6.17823e-007
Heightened Def Con from 6.17823e-007 to 6.17823e-007
Heightened Def Con from 6.17823e-007 to 6.17823e-007
Heightened Def Con from 6.17823e-007 to 6.17823e-007
Heightened Def Con from 6.17823e-007 to 6.17823e-007
Heightened Def Con from 6.17823e-007 ++to 6.17823e-007
Heightened Def Con from 6.17823e-007 +to 6.17823e-007
Heightened Def Con from 6.17823e-007 to 6.17823e-007
Heightened Def Con from 6.17823e-007 to 6.17823e-007
Heightened Def Con from 6.17823e-007 to 6.17823e-007
Heightened Def Con from 6.17823e-007 ++to 6.17823e-007
Heightened Def Con from 6.17823e-007 to 6.17823e-007
Heightened Def Con from 6.17823e-007 to 6.17823e-007
Heightened Def Con from 6.17823e-007 to 6.17823e-007
Heightened Def Con from 6.17823e-007 to 6.17823e-007
Heightened Def Con from 6.17823e-007 ++to 6.17823e-007
Heightened Def Con from 6.17823e-007 to 6.17823e-007
Heightened Def Con from 6.17823e-007 to 6.17823e-007
Heightened Def Con from 6.17823e-007 to 6.17823e-007
Heightened Def Con from 6.17823e-007 +to 6.17823e-007
Heightened Def Con from 6.17823e-007 ++++to 6.17823e-007
Heightened Def Con from 6.17823e-007 +to 6.17823e-007
Heightened Def Con from 6.17823e-007 to 6.17823e-007
Heightened Def Con from 6.27699e-007 to 6.27699e-007
Heightened Def Con from 6.37816e-007 to 6.37816e-007
Heightened Def Con from 6.37816e-007 +to 6.37816e-007
Heightened Def Con from 6.37816e-007 to 6.37816e-007
Heightened Def Con from 6.37816e-007 to 6.37816e-007
Heightened Def Con from 6.37816e-007 to 6.37816e-007
Heightened Def Con from 6.37816e-007 to 6.37816e-007
Heightened Def Con from 6.37816e-007 ++++to 6.37816e-007
Heightened Def Con from 6.67696e-007 to 6.67696e-007
Heightened Def Con from 6.67696e-007 +to 6.67696e-007
Heightened Def Con from 6.67696e-007 to 6.67696e-007
Heightened Def Con from 6.67696e-007 ++to 6.67696e-007
Heightened Def Con from 6.67696e-007 to 6.67696e-007
Heightened Def Con from 6.67696e-007 to 6.67696e-007
Heightened Def Con from 6.67696e-007 to 6.67696e-007
Heightened Def Con from 6.67696e-007 ++++to 6.67696e-007
Heightened Def Con from 6.67696e-007 to 6.67696e-007
Heightened Def Con from 6.67696e-007 to 6.67696e-007
Heightened Def Con from 6.67696e-007 to 6.67696e-007
Heightened Def Con from 6.67696e-007 to 6.67696e-007
Heightened Def Con from 6.67696e-007 ++to 6.67696e-007
Heightened Def Con from 6.67696e-007 +to 6.67696e-007
Heightened Def Con from 6.67696e-007 to 6.67696e-007
Heightened Def Con from 6.67696e-007 +to 6.67696e-007
Heightened Def Con from 6.67696e-007 +to 6.67696e-007
Heightened Def Con from 6.67696e-007 ++++++to 6.67696e-007
Heightened Def Con from 6.67696e-007 to 6.67696e-007
Heightened Def Con from 6.67696e-007 +to 6.67696e-007
Heightened Def Con from 6.67696e-007 +to 6.67696e-007
Heightened Def Con from 6.67696e-007 +to 6.67696e-007
Heightened Def Con from 6.67696e-007 to 6.67696e-007
Heightened Def Con from 6.67696e-007 to 6.67696e-007
Heightened Def Con from 6.67696e-007 to 6.67696e-007
Heightened Def Con from 6.67696e-007 to 6.67696e-007
Heightened Def Con from 6.67696e-007 ++++++to 6.67696e-007
Heightened Def Con from 6.67696e-007 to 6.67696e-007
Heightened Def Con from 6.77827e-007 to 6.77827e-007
Heightened Def Con from 6.77827e-007 ++to 6.77827e-007
Heightened Def Con from 6.77827e-007 to 6.77827e-007
Heightened Def Con from 6.77827e-007 to 6.77827e-007
Heightened Def Con from 6.77827e-007 to 6.77827e-007
Heightened Def Con from 6.77827e-007 to 6.77827e-007
Heightened Def Con from 6.77827e-007 to 6.77827e-007
Heightened Def Con from 6.77827e-007 +to 6.77827e-007
Heightened Def Con from 6.77827e-007 to 6.77827e-007
Heightened Def Con from 6.77827e-007 +++to 6.77827e-007
Heightened Def Con from 6.77827e-007 ++to 6.77827e-007
Heightened Def Con from 6.77827e-007 +to 6.77827e-007
Heightened Def Con from 6.77827e-007 ++to 6.77827e-007
Heightened Def Con from 6.77827e-007 ++to 6.77827e-007
Heightened Def Con from 6.77827e-007 ++to 6.77827e-007
Heightened Def Con from 6.77827e-007 to 6.77827e-007
Heightened Def Con from 6.77827e-007 to 6.77827e-007
Heightened Def Con from 6.77827e-007 +to 6.77827e-007
Heightened Def Con from 6.77827e-007 to 6.77827e-007
Heightened Def Con from 6.77827e-007 +to 6.77827e-007
Heightened Def Con from 6.77827e-007 +++to 6.77827e-007
Heightened Def Con from 6.77827e-007 ++to 6.77827e-007
Heightened Def Con from 6.77827e-007 to 6.77827e-007
Heightened Def Con from 6.77827e-007 to 6.77827e-007
Heightened Def Con from 6.77827e-007 to 6.77827e-007
Heightened Def Con from 6.77827e-007 +++to 6.77827e-007
Heightened Def Con from 6.77827e-007 to 6.77827e-007
Heightened Def Con from 6.77827e-007 ++to 6.77827e-007
Heightened Def Con from 6.77827e-007 to 6.77827e-007
Heightened Def Con from 6.77827e-007 ++to 6.77827e-007
Heightened Def Con from 6.77827e-007 to 6.77827e-007
Heightened Def Con from 6.77827e-007 to 6.77827e-007
Heightened Def Con from 6.77827e-007 ++to 6.77827e-007
Heightened Def Con from 6.77827e-007 to 6.77827e-007
Heightened Def Con from 6.77827e-007 +to 6.77827e-007
Heightened Def Con from 6.77827e-007 +to 6.77827e-007
Heightened Def Con from 6.77827e-007 ++to 6.77827e-007
Heightened Def Con from 6.77827e-007 +to 6.77827e-007
Heightened Def Con from 6.77827e-007 to 6.77827e-007
Heightened Def Con from 6.77827e-007 to 6.77827e-007
Heightened Def Con from 6.77827e-007 +to 6.77827e-007
Heightened Def Con from 6.77827e-007 to 6.77827e-007
Heightened Def Con from 6.77827e-007 +to 6.77827e-007
Heightened Def Con from 6.77827e-007 +to 6.77827e-007
Heightened Def Con from 6.77827e-007 ++++to 6.77827e-007
Heightened Def Con from 6.77827e-007 +to 6.77827e-007
Heightened Def Con from 6.77827e-007 +to 6.77827e-007
Heightened Def Con from 6.77827e-007 ++to 6.77827e-007
Heightened Def Con from 6.77827e-007 to 6.77827e-007
Heightened Def Con from 6.77827e-007 to 6.77827e-007
Heightened Def Con from 6.77827e-007 ++++to 6.77827e-007
Heightened Def Con from 6.77827e-007 to 6.77827e-007
Heightened Def Con from 6.77827e-007 to 6.77827e-007
Heightened Def Con from 6.77827e-007 +++++to 6.77827e-007
Heightened Def Con from 6.77827e-007 +++to 6.77827e-007
Heightened Def Con from 6.77827e-007 +to 6.77827e-007
Heightened Def Con from 6.77827e-007 +to 6.77827e-007
Heightened Def Con from 6.77827e-007 ++++to 6.77827e-007
Heightened Def Con from 6.87688e-007 to 6.87688e-007
Heightened Def Con from 6.97829e-007 to 6.97829e-007
Heightened Def Con from 6.98775e-007 to 6.98775e-007
Heightened Def Con from 6.98775e-007 +to 6.98775e-007
Heightened Def Con from 7.27699e-007 to 7.27699e-007
Heightened Def Con from 7.37816e-007 to 7.37816e-007
Heightened Def Con from 7.37816e-007 to 7.37816e-007
Heightened Def Con from 7.37816e-007 to 7.37816e-007
Heightened Def Con from 7.37816e-007 +++to 7.37816e-007
Heightened Def Con from 7.37816e-007 to 7.37816e-007
Heightened Def Con from 7.37816e-007 +to 7.37816e-007
Heightened Def Con from 7.37816e-007 to 7.37816e-007
Heightened Def Con from 7.37816e-007 to 7.37816e-007
Heightened Def Con from 7.37816e-007 to 7.37816e-007
Heightened Def Con from 7.37816e-007 to 7.37816e-007
Heightened Def Con from 7.37816e-007 to 7.37816e-007
Heightened Def Con from 7.37816e-007 to 7.37816e-007
Heightened Def Con from 7.37816e-007 ++to 7.37816e-007
Heightened Def Con from 7.37816e-007 ++to 7.37816e-007
Heightened Def Con from 7.37816e-007 +to 7.37816e-007
Heightened Def Con from 7.37816e-007 ++to 7.37816e-007
Heightened Def Con from 7.37816e-007 +++to 7.37816e-007
Heightened Def Con from 7.37816e-007 to 7.37816e-007
Heightened Def Con from 7.37816e-007 ++++to 7.37816e-007
Heightened Def Con from 7.37816e-007 to 7.37816e-007
Heightened Def Con from 7.37816e-007 +to 7.37816e-007
Heightened Def Con from 7.37816e-007 to 7.37816e-007
Heightened Def Con from 7.37816e-007 to 7.37816e-007
Heightened Def Con from 7.37816e-007 to 7.37816e-007
Heightened Def Con from 7.37816e-007 +to 7.37816e-007
Heightened Def Con from 7.37816e-007 to 7.37816e-007
Heightened Def Con from 7.37816e-007 to 7.37816e-007
Heightened Def Con from 7.37816e-007 to 7.37816e-007
Heightened Def Con from 7.37816e-007 to 7.37816e-007
Heightened Def Con from 7.37816e-007 to 7.37816e-007
Heightened Def Con from 7.37816e-007 to 7.37816e-007
Heightened Def Con from 7.37816e-007 +to 7.37816e-007
Heightened Def Con from 7.37816e-007 to 7.37816e-007
Heightened Def Con from 7.37816e-007 to 7.37816e-007
Heightened Def Con from 7.37816e-007 +to 7.37816e-007
Heightened Def Con from 7.37816e-007 to 7.37816e-007
Heightened Def Con from 7.37816e-007 +to 7.37816e-007
Heightened Def Con from 7.37816e-007 to 7.37816e-007
Heightened Def Con from 7.37816e-007 +to 7.37816e-007
Heightened Def Con from 7.37816e-007 +to 7.37816e-007
Heightened Def Con from 7.37816e-007 +to 7.37816e-007
Heightened Def Con from 7.37816e-007 +++to 7.37816e-007
Heightened Def Con from 7.37816e-007 ++to 7.37816e-007
Heightened Def Con from 7.37816e-007 to 7.37816e-007
Heightened Def Con from 7.37816e-007 ++to 7.37816e-007
Heightened Def Con from 7.37816e-007 ++to 7.37816e-007
Heightened Def Con from 7.37816e-007 to 7.37816e-007
Heightened Def Con from 7.37816e-007 ++to 7.37816e-007
Heightened Def Con from 7.37816e-007 ++to 7.37816e-007
Heightened Def Con from 7.37816e-007 +to 7.37816e-007
Heightened Def Con from 7.37816e-007 +++to 7.37816e-007
Heightened Def Con from 7.37816e-007 +to 7.37816e-007
Heightened Def Con from 7.37816e-007 +to 7.37816e-007
Heightened Def Con from 7.37816e-007 to 7.37816e-007
Heightened Def Con from 7.37816e-007 +++to 7.37816e-007
Heightened Def Con from 7.37816e-007 ++to 7.37816e-007
Heightened Def Con from 7.37816e-007 ++to 7.37816e-007
Heightened Def Con from 7.37816e-007 ++to 7.37816e-007
Heightened Def Con from 7.37816e-007 to 7.37816e-007
Heightened Def Con from 7.37816e-007 +++to 7.37816e-007
Heightened Def Con from 7.37816e-007 to 7.37816e-007
Heightened Def Con from 7.37816e-007 +++++to 7.37816e-007
Heightened Def Con from 7.98775e-007 to 7.98775e-007
Heightened Def Con from 8.07691e-007 to 8.07691e-007
Heightened Def Con from 8.07691e-007 to 8.07691e-007
Heightened Def Con from 8.07691e-007 +to 8.07691e-007
Heightened Def Con from 8.07691e-007 +++++to 8.07691e-007
Heightened Def Con from 8.07691e-007 to 8.07691e-007
Heightened Def Con from 8.17823e-007 to 8.17823e-007
Heightened Def Con from 8.17823e-007 to 8.17823e-007
Heightened Def Con from 8.17823e-007 ++to 8.17823e-007
Heightened Def Con from 8.17823e-007 +++to 8.17823e-007
Heightened Def Con from 8.17823e-007 +to 8.17823e-007
Heightened Def Con from 8.17823e-007 to 8.17823e-007
Heightened Def Con from 8.17823e-007 to 8.17823e-007
Heightened Def Con from 8.17823e-007 ++++to 8.17823e-007
Heightened Def Con from 8.17823e-007 to 8.17823e-007
Heightened Def Con from 8.17823e-007 +++++to 8.17823e-007
Heightened Def Con from 8.17823e-007 to 8.17823e-007
Heightened Def Con from 8.17823e-007 ++to 8.17823e-007
Heightened Def Con from 8.17823e-007 ++to 8.17823e-007
Heightened Def Con from 8.17823e-007 +++to 8.17823e-007
Heightened Def Con from 8.17823e-007 ++to 8.17823e-007
Heightened Def Con from 8.17823e-007 +to 8.17823e-007
Heightened Def Con from 8.17823e-007 ++to 8.17823e-007
Heightened Def Con from 8.17823e-007 ++++to 8.17823e-007
Heightened Def Con from 8.17823e-007 to 8.17823e-007
Heightened Def Con from 8.17823e-007 to 8.17823e-007
Heightened Def Con from 8.17823e-007 +++to 8.17823e-007
Heightened Def Con from 8.17823e-007 to 8.17823e-007
Heightened Def Con from 8.17823e-007 +++++to 8.17823e-007
Heightened Def Con from 8.27699e-007 to 8.27699e-007
Heightened Def Con from 8.27699e-007 to 8.27699e-007
Heightened Def Con from 8.27699e-007 to 8.27699e-007
Heightened Def Con from 8.27699e-007 to 8.27699e-007
Heightened Def Con from 8.27699e-007 to 8.27699e-007
Heightened Def Con from 8.27699e-007 to 8.27699e-007
Heightened Def Con from 8.27699e-007 to 8.27699e-007
Heightened Def Con from 8.27699e-007 to 8.27699e-007
Heightened Def Con from 8.27699e-007 to 8.27699e-007
Heightened Def Con from 8.27699e-007 to 8.27699e-007
Heightened Def Con from 8.27699e-007 ++++++to 8.27699e-007
Heightened Def Con from 8.27699e-007 to 8.27699e-007
Heightened Def Con from 8.27699e-007 to 8.27699e-007
Heightened Def Con from 8.27699e-007 to 8.27699e-007
Heightened Def Con from 8.27699e-007 to 8.27699e-007
Heightened Def Con from 8.27699e-007 to 8.27699e-007
Heightened Def Con from 8.27699e-007 to 8.27699e-007
Heightened Def Con from 8.27699e-007 to 8.27699e-007
Heightened Def Con from 8.27699e-007 to 8.27699e-007
Heightened Def Con from 8.27699e-007 ++to 8.27699e-007
Heightened Def Con from 8.27699e-007 to 8.27699e-007
Heightened Def Con from 8.27699e-007 +to 8.27699e-007
Heightened Def Con from 8.27699e-007 +to 8.27699e-007
Heightened Def Con from 8.27699e-007 to 8.27699e-007
Heightened Def Con from 8.27699e-007 +++++++to 8.27699e-007
Heightened Def Con from 8.27699e-007 to 8.27699e-007
Heightened Def Con from 8.27699e-007 +++++to 8.27699e-007
Heightened Def Con from 8.27699e-007 to 8.27699e-007
Heightened Def Con from 8.27699e-007 to 8.27699e-007
Heightened Def Con from 8.27699e-007 +to 8.27699e-007
Heightened Def Con from 8.27699e-007 to 8.27699e-007
Heightened Def Con from 8.27699e-007 +to 8.27699e-007
Heightened Def Con from 8.27699e-007 to 8.27699e-007
Heightened Def Con from 8.27699e-007 ++++++++to 8.27699e-007
Heightened Def Con from 8.27699e-007 +to 8.27699e-007
Heightened Def Con from 8.27699e-007 to 8.27699e-007
Heightened Def Con from 8.27699e-007 to 8.27699e-007
Heightened Def Con from 8.27699e-007 to 8.27699e-007
Heightened Def Con from 8.27699e-007 to 8.27699e-007
Heightened Def Con from 8.27699e-007 to 8.27699e-007
Heightened Def Con from 8.27699e-007 to 8.27699e-007
Heightened Def Con from 8.27699e-007 to 8.27699e-007
Heightened Def Con from 8.27699e-007 to 8.27699e-007
Heightened Def Con from 8.27699e-007 +to 8.27699e-007
Heightened Def Con from 8.27699e-007 ++to 8.27699e-007
Heightened Def Con from 8.27699e-007 to 8.27699e-007
Heightened Def Con from 8.27699e-007 to 8.27699e-007
Heightened Def Con from 8.27699e-007 to 8.27699e-007
Heightened Def Con from 8.27699e-007 +to 8.27699e-007
Heightened Def Con from 8.27699e-007 +to 8.27699e-007
Heightened Def Con from 8.27699e-007 +++to 8.27699e-007
Heightened Def Con from 8.27699e-007 +++++++++to 8.27699e-007
Heightened Def Con from 8.27699e-007 to 8.27699e-007
Heightened Def Con from 8.37816e-007 to 8.37816e-007
Heightened Def Con from 8.37816e-007 to 8.37816e-007
Heightened Def Con from 8.37816e-007 to 8.37816e-007
Heightened Def Con from 8.37816e-007 +++++to 8.37816e-007
Heightened Def Con from 8.37816e-007 +to 8.37816e-007
Heightened Def Con from 8.37816e-007 to 8.37816e-007
Heightened Def Con from 8.37816e-007 to 8.37816e-007
Heightened Def Con from 8.37816e-007 to 8.37816e-007
Heightened Def Con from 8.37816e-007 to 8.37816e-007
Heightened Def Con from 8.37816e-007 +to 8.37816e-007
Heightened Def Con from 8.37816e-007 to 8.37816e-007
Heightened Def Con from 8.37816e-007 to 8.37816e-007
Heightened Def Con from 8.37816e-007 +++to 8.37816e-007
Heightened Def Con from 8.37816e-007 to 8.37816e-007
Heightened Def Con from 8.37816e-007 +++to 8.37816e-007
Heightened Def Con from 8.37816e-007 to 8.37816e-007
Heightened Def Con from 8.37816e-007 to 8.37816e-007
Heightened Def Con from 8.37816e-007 to 8.37816e-007
Heightened Def Con from 8.37816e-007 to 8.37816e-007
Heightened Def Con from 8.37816e-007 to 8.37816e-007
Heightened Def Con from 8.37816e-007 +++to 8.37816e-007
Heightened Def Con from 8.37816e-007 ++to 8.37816e-007
Heightened Def Con from 8.37816e-007 +to 8.37816e-007
Heightened Def Con from 8.37816e-007 to 8.37816e-007
Heightened Def Con from 8.37816e-007 +++to 8.37816e-007
Heightened Def Con from 8.37816e-007 to 8.37816e-007
Heightened Def Con from 8.37816e-007 +to 8.37816e-007
Heightened Def Con from 8.37816e-007 +to 8.37816e-007
Heightened Def Con from 8.37816e-007 +to 8.37816e-007
Heightened Def Con from 8.37816e-007 to 8.37816e-007
Heightened Def Con from 8.37816e-007 ++to 8.37816e-007
Heightened Def Con from 8.37816e-007 to 8.37816e-007
Heightened Def Con from 8.37816e-007 to 8.37816e-007
Heightened Def Con from 8.37816e-007 to 8.37816e-007
Heightened Def Con from 8.37816e-007 to 8.37816e-007
Heightened Def Con from 8.37816e-007 ++to 8.37816e-007
Heightened Def Con from 8.37816e-007 to 8.37816e-007
Heightened Def Con from 8.37816e-007 to 8.37816e-007
Heightened Def Con from 8.37816e-007 +to 8.37816e-007
Heightened Def Con from 8.37816e-007 to 8.37816e-007
Heightened Def Con from 8.37816e-007 to 8.37816e-007
Heightened Def Con from 8.37816e-007 to 8.37816e-007
Heightened Def Con from 8.37816e-007 +to 8.37816e-007
Heightened Def Con from 8.37816e-007 to 8.37816e-007
Heightened Def Con from 8.37816e-007 +to 8.37816e-007
Heightened Def Con from 8.37816e-007 to 8.37816e-007
Heightened Def Con from 8.37816e-007 to 8.37816e-007
Heightened Def Con from 8.37816e-007 to 8.37816e-007
Heightened Def Con from 8.37816e-007 to 8.37816e-007
Heightened Def Con from 8.37816e-007 to 8.37816e-007
Heightened Def Con from 8.37816e-007 to 8.37816e-007
Heightened Def Con from 8.37816e-007 to 8.37816e-007
Heightened Def Con from 8.37816e-007 to 8.37816e-007
Heightened Def Con from 8.37816e-007 to 8.37816e-007
Heightened Def Con from 8.37816e-007 to 8.37816e-007
Heightened Def Con from 8.37816e-007 to 8.37816e-007
Heightened Def Con from 8.37816e-007 +to 8.37816e-007
Heightened Def Con from 8.37816e-007 to 8.37816e-007
Heightened Def Con from 8.37816e-007 +to 8.37816e-007
Heightened Def Con from 8.37816e-007 to 8.37816e-007
Heightened Def Con from 8.37816e-007 +++to 8.37816e-007
Heightened Def Con from 8.37816e-007 to 8.37816e-007
Heightened Def Con from 8.37816e-007 +++to 8.37816e-007
Heightened Def Con from 8.37816e-007 ++++to 8.37816e-007
Heightened Def Con from 8.37816e-007 to 8.37816e-007
Heightened Def Con from 8.37816e-007 to 8.37816e-007
Heightened Def Con from 8.37816e-007 to 8.37816e-007
Heightened Def Con from 8.37816e-007 +++++to 8.37816e-007
Heightened Def Con from 8.37816e-007 to 8.37816e-007
Heightened Def Con from 8.67696e-007 +to 8.67696e-007
Heightened Def Con from 8.98775e-007 +to 8.98775e-007
Heightened Def Con from 8.98775e-007 +to 8.98775e-007
Heightened Def Con from 8.98775e-007 +to 8.98775e-007
Heightened Def Con from 8.98775e-007 to 8.98775e-007
Heightened Def Con from 8.98775e-007 to 8.98775e-007
Heightened Def Con from 8.98775e-007 to 8.98775e-007
Heightened Def Con from 8.98775e-007 to 8.98775e-007
Heightened Def Con from 8.98775e-007 +to 8.98775e-007
Heightened Def Con from 8.98775e-007 to 8.98775e-007
Heightened Def Con from 9.0805e-007 to 9.0805e-007
Heightened Def Con from 9.37817e-007 to 9.37817e-007
Heightened Def Con from 9.9783e-007 to 9.9783e-007
Heightened Def Con from 9.9783e-007 +to 9.9783e-007
Heightened Def Con from 9.9783e-007 to 9.9783e-007
Heightened Def Con from 9.9783e-007 to 9.9783e-007
Heightened Def Con from 9.9783e-007 to 9.9783e-007
Heightened Def Con from 9.9783e-007 +to 9.9783e-007
Heightened Def Con from 9.9783e-007 +to 9.9783e-007
Heightened Def Con from 9.9783e-007 to 9.9783e-007
Heightened Def Con from 9.9783e-007 to 9.9783e-007
Heightened Def Con from 9.9783e-007 to 9.9783e-007
Heightened Def Con from 9.9783e-007 +to 9.9783e-007
Heightened Def Con from 9.9783e-007 to 9.9783e-007
Heightened Def Con from 9.9783e-007 to 9.9783e-007
Heightened Def Con from 9.9783e-007 +++to 9.9783e-007
Heightened Def Con from 9.9783e-007 to 9.9783e-007
Heightened Def Con from 9.9783e-007 to 9.9783e-007
Heightened Def Con from 9.9783e-007 to 9.9783e-007
Heightened Def Con from 9.9783e-007 to 9.9783e-007
Heightened Def Con from 9.9783e-007 to 9.9783e-007
Heightened Def Con from 9.9783e-007 ++to 9.9783e-007
Heightened Def Con from 9.9783e-007 to 9.9783e-007
Heightened Def Con from 9.9783e-007 to 9.9783e-007
Heightened Def Con from 9.9783e-007 +to 9.9783e-007
Heightened Def Con from 9.9783e-007 to 9.9783e-007
Heightened Def Con from 9.9783e-007 +++to 9.9783e-007
Heightened Def Con from 9.9783e-007 to 9.9783e-007
Heightened Def Con from 9.9783e-007 to 9.9783e-007
Heightened Def Con from 9.9783e-007 +++to 9.9783e-007
Heightened Def Con from 9.9783e-007 ++to 9.9783e-007
Heightened Def Con from 9.9783e-007 +to 9.9783e-007
Heightened Def Con from 9.9783e-007 ++++to 9.9783e-007
Heightened Def Con from 9.9783e-007 +++to 9.9783e-007
Heightened Def Con from 9.9783e-007 to 9.9783e-007
Heightened Def Con from 9.98775e-007 to 9.98775e-007
Heightened Def Con from 1.00805e-006 to 1.00805e-006
Heightened Def Con from 1.01782e-006 to 1.01782e-006
Heightened Def Con from 1.01782e-006 to 1.01782e-006
Heightened Def Con from 1.01782e-006 to 1.01782e-006
Heightened Def Con from 1.01782e-006 to 1.01782e-006
Heightened Def Con from 1.01782e-006 to 1.01782e-006
Heightened Def Con from 1.01782e-006 to 1.01782e-006
Heightened Def Con from 1.01782e-006 to 1.01782e-006
Heightened Def Con from 1.01782e-006 to 1.01782e-006
Heightened Def Con from 1.01782e-006 to 1.01782e-006
Heightened Def Con from 1.01782e-006 ++to 1.01782e-006
Heightened Def Con from 1.01782e-006 +++to 1.01782e-006
Heightened Def Con from 1.01782e-006 ++to 1.01782e-006
Heightened Def Con from 1.01782e-006 ++to 1.01782e-006
Heightened Def Con from 1.01782e-006 +++++to 1.01782e-006
Heightened Def Con from 1.01782e-006 ++++to 1.01782e-006
Heightened Def Con from 1.01782e-006 +to 1.01782e-006
Heightened Def Con from 1.01782e-006 to 1.01782e-006
Heightened Def Con from 1.01782e-006 ++to 1.01782e-006
Heightened Def Con from 1.01782e-006 +to 1.01782e-006
Heightened Def Con from 1.01782e-006 +++++to 1.01782e-006
Heightened Def Con from 1.03782e-006 to 1.03782e-006
Heightened Def Con from 1.03782e-006 to 1.03782e-006
Heightened Def Con from 1.03782e-006 to 1.03782e-006
Heightened Def Con from 1.03782e-006 to 1.03782e-006
Heightened Def Con from 1.03782e-006 to 1.03782e-006
Heightened Def Con from 1.03782e-006 to 1.03782e-006
Heightened Def Con from 1.03782e-006 to 1.03782e-006
Heightened Def Con from 1.03782e-006 to 1.03782e-006
Heightened Def Con from 1.03782e-006 to 1.03782e-006
Heightened Def Con from 1.03782e-006 to 1.03782e-006
Heightened Def Con from 1.03782e-006 +++to 1.03782e-006
Heightened Def Con from 1.03782e-006 to 1.03782e-006
Heightened Def Con from 1.03782e-006 to 1.03782e-006
Heightened Def Con from 1.03782e-006 to 1.03782e-006
Heightened Def Con from 1.03782e-006 to 1.03782e-006
Heightened Def Con from 1.03782e-006 to 1.03782e-006
Heightened Def Con from 1.03782e-006 to 1.03782e-006
Heightened Def Con from 1.03782e-006 to 1.03782e-006
Heightened Def Con from 1.03782e-006 to 1.03782e-006
Heightened Def Con from 1.03782e-006 ++to 1.03782e-006
Heightened Def Con from 1.03782e-006 to 1.03782e-006
Heightened Def Con from 1.03782e-006 +to 1.03782e-006
Heightened Def Con from 1.03782e-006 +to 1.03782e-006
Heightened Def Con from 1.03782e-006 +++++to 1.03782e-006
Heightened Def Con from 1.03782e-006 to 1.03782e-006
Heightened Def Con from 1.03782e-006 ++to 1.03782e-006
Heightened Def Con from 1.03782e-006 to 1.03782e-006
Heightened Def Con from 1.03782e-006 +to 1.03782e-006
Heightened Def Con from 1.03782e-006 +++to 1.03782e-006
Heightened Def Con from 1.03782e-006 to 1.03782e-006
Heightened Def Con from 1.03782e-006 +to 1.03782e-006
Heightened Def Con from 1.03782e-006 to 1.03782e-006
Heightened Def Con from 1.03782e-006 +to 1.03782e-006
Heightened Def Con from 1.03782e-006 ++to 1.03782e-006
Heightened Def Con from 1.03782e-006 ++to 1.03782e-006
Heightened Def Con from 1.03782e-006 to 1.03782e-006
Heightened Def Con from 1.03782e-006 to 1.03782e-006
Heightened Def Con from 1.03782e-006 +++to 1.03782e-006
Heightened Def Con from 1.03782e-006 to 1.03782e-006
Heightened Def Con from 1.03782e-006 +to 1.03782e-006
Heightened Def Con from 1.03782e-006 +++to 1.03782e-006
Heightened Def Con from 1.03782e-006 +++++to 1.03782e-006
Heightened Def Con from 1.03782e-006 to 1.03782e-006
Heightened Def Con from 1.03782e-006 to 1.03782e-006
Heightened Def Con from 1.03782e-006 ++++to 1.03782e-006
Heightened Def Con from 1.03782e-006 +to 1.03782e-006
Heightened Def Con from 1.03782e-006 +to 1.03782e-006
Heightened Def Con from 1.03782e-006 to 1.03782e-006
Heightened Def Con from 1.03782e-006 +++to 1.03782e-006
Heightened Def Con from 1.03782e-006 +++to 1.03782e-006
Heightened Def Con from 1.03782e-006 +++to 1.03782e-006
Heightened Def Con from 1.03782e-006 +to 1.03782e-006
Heightened Def Con from 1.03782e-006 +++to 1.03782e-006
Heightened Def Con from 1.03782e-006 ++to 1.03782e-006
Heightened Def Con from 1.03782e-006 ++++to 1.03782e-006
Heightened Def Con from 1.03782e-006 to 1.03782e-006
Heightened Def Con from 1.03782e-006 +to 1.03782e-006
Heightened Def Con from 1.03782e-006 ++++to 1.03782e-006
Heightened Def Con from 1.03782e-006 to 1.03782e-006
Heightened Def Con from 1.03782e-006 +to 1.03782e-006
Heightened Def Con from 1.03782e-006 to 1.03782e-006
Heightened Def Con from 1.03782e-006 +++to 1.03782e-006
Heightened Def Con from 1.03782e-006 to 1.03782e-006
Heightened Def Con from 1.03782e-006 to 1.03782e-006
Heightened Def Con from 1.03782e-006 ++++to 1.03782e-006
Heightened Def Con from 1.03782e-006 to 1.03782e-006
Heightened Def Con from 1.03782e-006 +to 1.03782e-006
Heightened Def Con from 1.03782e-006 +to 1.03782e-006
Heightened Def Con from 1.03782e-006 to 1.03782e-006
Heightened Def Con from 1.03782e-006 to 1.03782e-006
Heightened Def Con from 1.03782e-006 ++to 1.03782e-006
Heightened Def Con from 1.03782e-006 to 1.03782e-006
Heightened Def Con from 1.03782e-006 to 1.03782e-006
Heightened Def Con from 1.03782e-006 to 1.03782e-006
Heightened Def Con from 1.03782e-006 +++to 1.03782e-006
Heightened Def Con from 1.03782e-006 to 1.03782e-006
Heightened Def Con from 1.03782e-006 to 1.03782e-006
Heightened Def Con from 1.03782e-006 to 1.03782e-006
Heightened Def Con from 1.03782e-006 +++to 1.03782e-006
Heightened Def Con from 1.03782e-006 +++++to 1.03782e-006
Heightened Def Con from 1.03782e-006 +++to 1.03782e-006
Heightened Def Con from 1.03782e-006 ++to 1.03782e-006
Heightened Def Con from 1.03782e-006 to 1.03782e-006
Heightened Def Con from 1.03782e-006 +to 1.03782e-006
Heightened Def Con from 1.03782e-006 +++++to 1.03782e-006
Heightened Def Con from 1.03782e-006 to 1.03782e-006
Heightened Def Con from 1.03782e-006 to 1.03782e-006
Heightened Def Con from 1.03782e-006 to 1.03782e-006
Heightened Def Con from 1.03782e-006 to 1.03782e-006
Heightened Def Con from 1.03782e-006 to 1.03782e-006
Heightened Def Con from 1.03782e-006 to 1.03782e-006
Heightened Def Con from 1.03782e-006 to 1.03782e-006
Heightened Def Con from 1.03782e-006 +++++to 1.03782e-006
Heightened Def Con from 1.03782e-006 to 1.03782e-006
Heightened Def Con from 1.0477e-006 +to 1.0477e-006
Heightened Def Con from 1.0477e-006 +to 1.0477e-006
Heightened Def Con from 1.0477e-006 to 1.0477e-006
Heightened Def Con from 1.0477e-006 +to 1.0477e-006
Heightened Def Con from 1.0477e-006 ++++to 1.0477e-006
Heightened Def Con from 1.0477e-006 to 1.0477e-006
Heightened Def Con from 1.0477e-006 ++to 1.0477e-006
Heightened Def Con from 1.0477e-006 to 1.0477e-006
Heightened Def Con from 1.0477e-006 to 1.0477e-006
Heightened Def Con from 1.0477e-006 ++++++++to 1.0477e-006
Heightened Def Con from 1.0477e-006 to 1.0477e-006
Heightened Def Con from 1.13782e-006 to 1.13782e-006
Heightened Def Con from 1.13782e-006 to 1.13782e-006
Heightened Def Con from 1.13782e-006 to 1.13782e-006
Heightened Def Con from 1.13782e-006 to 1.13782e-006
Heightened Def Con from 1.13782e-006 +++to 1.13782e-006
Heightened Def Con from 1.13782e-006 to 1.13782e-006
Heightened Def Con from 1.13782e-006 ++to 1.13782e-006
Heightened Def Con from 1.13782e-006 ++to 1.13782e-006
Heightened Def Con from 1.13782e-006 to 1.13782e-006
Heightened Def Con from 1.13782e-006 to 1.13782e-006
Heightened Def Con from 1.13782e-006 to 1.13782e-006
Heightened Def Con from 1.13782e-006 ++to 1.13782e-006
Heightened Def Con from 1.13782e-006 to 1.13782e-006
Heightened Def Con from 1.13782e-006 +++to 1.13782e-006
Heightened Def Con from 1.13782e-006 to 1.13782e-006
Heightened Def Con from 1.13782e-006 to 1.13782e-006
Heightened Def Con from 1.13782e-006 to 1.13782e-006
Heightened Def Con from 1.13782e-006 to 1.13782e-006
Heightened Def Con from 1.13782e-006 +to 1.13782e-006
Heightened Def Con from 1.13782e-006 ++to 1.13782e-006
Heightened Def Con from 1.13782e-006 to 1.13782e-006
Heightened Def Con from 1.13782e-006 to 1.13782e-006
Heightened Def Con from 1.13782e-006 to 1.13782e-006
Heightened Def Con from 1.13782e-006 to 1.13782e-006
Heightened Def Con from 1.13782e-006 to 1.13782e-006
Heightened Def Con from 1.13782e-006 to 1.13782e-006
Heightened Def Con from 1.13782e-006 +to 1.13782e-006
Heightened Def Con from 1.13782e-006 to 1.13782e-006
Heightened Def Con from 1.13782e-006 to 1.13782e-006
Heightened Def Con from 1.13782e-006 ++to 1.13782e-006
Heightened Def Con from 1.13782e-006 to 1.13782e-006
Heightened Def Con from 1.13782e-006 +to 1.13782e-006
Heightened Def Con from 1.13782e-006 to 1.13782e-006
Heightened Def Con from 1.13782e-006 to 1.13782e-006
Heightened Def Con from 1.13782e-006 +to 1.13782e-006
Heightened Def Con from 1.13782e-006 to 1.13782e-006
Heightened Def Con from 1.13782e-006 ++to 1.13782e-006
Heightened Def Con from 1.13782e-006 to 1.13782e-006
Heightened Def Con from 1.13782e-006 +to 1.13782e-006
Heightened Def Con from 1.13782e-006 ++to 1.13782e-006
Heightened Def Con from 1.13782e-006 to 1.13782e-006
Heightened Def Con from 1.13782e-006 to 1.13782e-006
Heightened Def Con from 1.13782e-006 +to 1.13782e-006
Heightened Def Con from 1.13782e-006 to 1.13782e-006
Heightened Def Con from 1.13782e-006 +++to 1.13782e-006
Heightened Def Con from 1.13782e-006 to 1.13782e-006
Heightened Def Con from 1.13782e-006 to 1.13782e-006
Heightened Def Con from 1.13782e-006 +to 1.13782e-006
Heightened Def Con from 1.13782e-006 to 1.13782e-006
Heightened Def Con from 1.13782e-006 to 1.13782e-006
Heightened Def Con from 1.13782e-006 to 1.13782e-006
Heightened Def Con from 1.13782e-006 +to 1.13782e-006
Heightened Def Con from 1.13782e-006 +to 1.13782e-006
Heightened Def Con from 1.13782e-006 ++to 1.13782e-006
Heightened Def Con from 1.13782e-006 to 1.13782e-006
Heightened Def Con from 1.13782e-006 to 1.13782e-006
Heightened Def Con from 1.13782e-006 to 1.13782e-006
Heightened Def Con from 1.13782e-006 ++++to 1.13782e-006
Heightened Def Con from 1.13782e-006 to 1.13782e-006
Heightened Def Con from 1.13782e-006 +++++to 1.13782e-006
Heightened Def Con from 1.1677e-006 ++to 1.1677e-006
Heightened Def Con from 1.1677e-006 ++to 1.1677e-006
Heightened Def Con from 1.1677e-006 to 1.1677e-006
Heightened Def Con from 1.1677e-006 to 1.1677e-006
Heightened Def Con from 1.1677e-006 to 1.1677e-006
Heightened Def Con from 1.1677e-006 to 1.1677e-006
Heightened Def Con from 1.1677e-006 +to 1.1677e-006
Heightened Def Con from 1.1677e-006 +to 1.1677e-006
Heightened Def Con from 1.1677e-006 to 1.1677e-006
Heightened Def Con from 1.1677e-006 ++to 1.1677e-006
Heightened Def Con from 1.1677e-006 to 1.1677e-006
Heightened Def Con from 1.1677e-006 ++++++to 1.1677e-006
Heightened Def Con from 1.1677e-006 ++++++to 1.1677e-006
Heightened Def Con from 1.1677e-006 to 1.1677e-006
Heightened Def Con from 1.19783e-006 to 1.19783e-006
Heightened Def Con from 1.19783e-006 to 1.19783e-006
Heightened Def Con from 1.19878e-006 to 1.19878e-006
Heightened Def Con from 1.19878e-006 ++to 1.19878e-006
Heightened Def Con from 1.19878e-006 +++to 1.19878e-006
Heightened Def Con from 1.19878e-006 ++to 1.19878e-006
Heightened Def Con from 1.19878e-006 +to 1.19878e-006
Heightened Def Con from 1.19878e-006 +to 1.19878e-006
Heightened Def Con from 1.19878e-006 ++to 1.19878e-006
Heightened Def Con from 1.19878e-006 +++to 1.19878e-006
Heightened Def Con from 1.19878e-006 to 1.19878e-006
Heightened Def Con from 1.19878e-006 to 1.19878e-006
Heightened Def Con from 1.2477e-006 to 1.2477e-006
Heightened Def Con from 1.2477e-006 +to 1.2477e-006
Heightened Def Con from 1.2477e-006 to 1.2477e-006
Heightened Def Con from 1.2477e-006 to 1.2477e-006
Heightened Def Con from 1.2477e-006 to 1.2477e-006
Heightened Def Con from 1.2477e-006 to 1.2477e-006
Heightened Def Con from 1.2477e-006 ++++++++to 1.2477e-006
Heightened Def Con from 1.2477e-006 to 1.2477e-006
Heightened Def Con from 1.29783e-006 to 1.29783e-006
Heightened Def Con from 1.29783e-006 to 1.29783e-006
Heightened Def Con from 1.29783e-006 to 1.29783e-006
Heightened Def Con from 1.29783e-006 to 1.29783e-006
Heightened Def Con from 1.29783e-006 to 1.29783e-006
Heightened Def Con from 1.29783e-006 +++to 1.29783e-006
Heightened Def Con from 1.29783e-006 to 1.29783e-006
Heightened Def Con from 1.29783e-006 +to 1.29783e-006
Heightened Def Con from 1.29783e-006 ++to 1.29783e-006
Heightened Def Con from 1.29783e-006 to 1.29783e-006
Heightened Def Con from 1.29783e-006 to 1.29783e-006
Heightened Def Con from 1.29783e-006 +to 1.29783e-006
Heightened Def Con from 1.29783e-006 +++to 1.29783e-006
Heightened Def Con from 1.29783e-006 to 1.29783e-006
Heightened Def Con from 1.29783e-006 to 1.29783e-006
Heightened Def Con from 1.29878e-006 to 1.29878e-006
Heightened Def Con from 1.30805e-006 to 1.30805e-006
Heightened Def Con from 1.30805e-006 to 1.30805e-006
Heightened Def Con from 1.30805e-006 to 1.30805e-006
Heightened Def Con from 1.37783e-006 to 1.37783e-006
Heightened Def Con from 1.37783e-006 to 1.37783e-006
Heightened Def Con from 1.37783e-006 to 1.37783e-006
Heightened Def Con from 1.37783e-006 to 1.37783e-006
Heightened Def Con from 1.37783e-006 +++to 1.37783e-006
Heightened Def Con from 1.41782e-006 to 1.41782e-006
Heightened Def Con from 1.41782e-006 to 1.41782e-006
Heightened Def Con from 1.41782e-006 to 1.41782e-006
Heightened Def Con from 1.41782e-006 to 1.41782e-006
Heightened Def Con from 1.41782e-006 ++to 1.41782e-006
Heightened Def Con from 1.41782e-006 +to 1.41782e-006
Heightened Def Con from 1.41782e-006 +to 1.41782e-006
Heightened Def Con from 1.41782e-006 to 1.41782e-006
Heightened Def Con from 1.41782e-006 to 1.41782e-006
Heightened Def Con from 1.41782e-006 to 1.41782e-006
Heightened Def Con from 1.41782e-006 to 1.41782e-006
Heightened Def Con from 1.41782e-006 +to 1.41782e-006
Heightened Def Con from 1.41782e-006 ++to 1.41782e-006
Heightened Def Con from 1.41782e-006 ++++to 1.41782e-006
Heightened Def Con from 1.4277e-006 ++to 1.4277e-006
Heightened Def Con from 1.4277e-006 to 1.4277e-006
Heightened Def Con from 1.4277e-006 +to 1.4277e-006
Heightened Def Con from 1.4277e-006 to 1.4277e-006
Heightened Def Con from 1.4277e-006 to 1.4277e-006
Heightened Def Con from 1.4277e-006 to 1.4277e-006
Heightened Def Con from 1.4277e-006 to 1.4277e-006
Heightened Def Con from 1.4277e-006 ++to 1.4277e-006
Heightened Def Con from 1.4277e-006 ++to 1.4277e-006
Heightened Def Con from 1.4277e-006 to 1.4277e-006
Heightened Def Con from 1.4277e-006 to 1.4277e-006
Heightened Def Con from 1.4277e-006 to 1.4277e-006
Heightened Def Con from 1.4277e-006 to 1.4277e-006
Heightened Def Con from 1.4277e-006 to 1.4277e-006
Heightened Def Con from 1.4277e-006 to 1.4277e-006
Heightened Def Con from 1.4277e-006 +to 1.4277e-006
Heightened Def Con from 1.4277e-006 to 1.4277e-006
Heightened Def Con from 1.4277e-006 +to 1.4277e-006
Heightened Def Con from 1.4277e-006 to 1.4277e-006
Heightened Def Con from 1.4277e-006 +++++++to 1.4277e-006
Heightened Def Con from 1.4277e-006 to 1.4277e-006
Heightened Def Con from 1.4277e-006 +to 1.4277e-006
Heightened Def Con from 1.4277e-006 to 1.4277e-006
Heightened Def Con from 1.4277e-006 to 1.4277e-006
Heightened Def Con from 1.4277e-006 to 1.4277e-006
Heightened Def Con from 1.4277e-006 to 1.4277e-006
Heightened Def Con from 1.4277e-006 to 1.4277e-006
Heightened Def Con from 1.4277e-006 to 1.4277e-006
Heightened Def Con from 1.4277e-006 +++++++++to 1.4277e-006
Heightened Def Con from 1.4277e-006 to 1.4277e-006
Heightened Def Con from 1.43782e-006 +to 1.43782e-006
Heightened Def Con from 1.43782e-006 +to 1.43782e-006
Heightened Def Con from 1.43782e-006 to 1.43782e-006
Heightened Def Con from 1.43782e-006 +to 1.43782e-006
Heightened Def Con from 1.43782e-006 ++to 1.43782e-006
Heightened Def Con from 1.4677e-006 to 1.4677e-006
Heightened Def Con from 1.4677e-006 +++to 1.4677e-006
Heightened Def Con from 1.4677e-006 to 1.4677e-006
Heightened Def Con from 1.4677e-006 to 1.4677e-006
Heightened Def Con from 1.4677e-006 ++to 1.4677e-006
Heightened Def Con from 1.4677e-006 to 1.4677e-006
Heightened Def Con from 1.4677e-006 to 1.4677e-006
Heightened Def Con from 1.4677e-006 +++to 1.4677e-006
Heightened Def Con from 1.4677e-006 to 1.4677e-006
Heightened Def Con from 1.49783e-006 +to 1.49783e-006
Heightened Def Con from 1.49783e-006 to 1.49783e-006
Heightened Def Con from 1.49783e-006 +to 1.49783e-006
Heightened Def Con from 1.49783e-006 to 1.49783e-006
Heightened Def Con from 1.49783e-006 ++++to 1.49783e-006
Heightened Def Con from 1.49878e-006 +++to 1.49878e-006
Heightened Def Con from 1.49878e-006 to 1.49878e-006
Heightened Def Con from 1.49878e-006 to 1.49878e-006
Heightened Def Con from 1.50769e-006 to 1.50769e-006
Heightened Def Con from 1.50769e-006 to 1.50769e-006
Heightened Def Con from 1.50769e-006 to 1.50769e-006
Heightened Def Con from 1.50769e-006 to 1.50769e-006
Heightened Def Con from 1.50769e-006 to 1.50769e-006
Heightened Def Con from 1.50769e-006 +to 1.50769e-006
Heightened Def Con from 1.50769e-006 to 1.50769e-006
Heightened Def Con from 1.50769e-006 to 1.50769e-006
Heightened Def Con from 1.50769e-006 to 1.50769e-006
Heightened Def Con from 1.50769e-006 ++to 1.50769e-006
Heightened Def Con from 1.50769e-006 +++++++to 1.50769e-006
Heightened Def Con from 1.5277e-006 to 1.5277e-006
Heightened Def Con from 1.5277e-006 +to 1.5277e-006
Heightened Def Con from 1.5277e-006 to 1.5277e-006
Heightened Def Con from 1.5277e-006 ++++to 1.5277e-006
Heightened Def Con from 1.5277e-006 to 1.5277e-006
Heightened Def Con from 1.5277e-006 to 1.5277e-006
Heightened Def Con from 1.5277e-006 to 1.5277e-006
Heightened Def Con from 1.5277e-006 ++to 1.5277e-006
Heightened Def Con from 1.5277e-006 to 1.5277e-006
Heightened Def Con from 1.5277e-006 to 1.5277e-006
Heightened Def Con from 1.5277e-006 to 1.5277e-006
Heightened Def Con from 1.5277e-006 to 1.5277e-006
Heightened Def Con from 1.5277e-006 to 1.5277e-006
Heightened Def Con from 1.5277e-006 +to 1.5277e-006
Heightened Def Con from 1.5277e-006 +to 1.5277e-006
Heightened Def Con from 1.5277e-006 to 1.5277e-006
Heightened Def Con from 1.5277e-006 to 1.5277e-006
Heightened Def Con from 1.5277e-006 to 1.5277e-006
Heightened Def Con from 1.5277e-006 +to 1.5277e-006
Heightened Def Con from 1.5277e-006 to 1.5277e-006
Heightened Def Con from 1.5277e-006 +to 1.5277e-006
Heightened Def Con from 1.5277e-006 to 1.5277e-006
Heightened Def Con from 1.5277e-006 to 1.5277e-006
Heightened Def Con from 1.5277e-006 to 1.5277e-006
Heightened Def Con from 1.5277e-006 +++to 1.5277e-006
Heightened Def Con from 1.5277e-006 +to 1.5277e-006
Heightened Def Con from 1.5277e-006 to 1.5277e-006
Heightened Def Con from 1.5277e-006 +to 1.5277e-006
Heightened Def Con from 1.5277e-006 to 1.5277e-006
Heightened Def Con from 1.5277e-006 to 1.5277e-006
Heightened Def Con from 1.5277e-006 to 1.5277e-006
Heightened Def Con from 1.5277e-006 to 1.5277e-006
Heightened Def Con from 1.5277e-006 to 1.5277e-006
Heightened Def Con from 1.5277e-006 +to 1.5277e-006
Heightened Def Con from 1.5277e-006 +++to 1.5277e-006
Heightened Def Con from 1.5277e-006 to 1.5277e-006
Heightened Def Con from 1.5277e-006 to 1.5277e-006
Heightened Def Con from 1.5277e-006 to 1.5277e-006
Heightened Def Con from 1.5277e-006 to 1.5277e-006
Heightened Def Con from 1.5277e-006 +++to 1.5277e-006
Heightened Def Con from 1.5277e-006 +to 1.5277e-006
Heightened Def Con from 1.5277e-006 to 1.5277e-006
Heightened Def Con from 1.5277e-006 +to 1.5277e-006
Heightened Def Con from 1.5277e-006 +to 1.5277e-006
Heightened Def Con from 1.5277e-006 to 1.5277e-006
Heightened Def Con from 1.5277e-006 +++++to 1.5277e-006
Heightened Def Con from 1.5277e-006 to 1.5277e-006
Heightened Def Con from 1.5277e-006 +++++++++to 1.5277e-006
Heightened Def Con from 1.5277e-006 to 1.5277e-006
Heightened Def Con from 1.53782e-006 to 1.53782e-006
Heightened Def Con from 1.53782e-006 to 1.53782e-006
Heightened Def Con from 1.53782e-006 to 1.53782e-006
Heightened Def Con from 1.53782e-006 to 1.53782e-006
Heightened Def Con from 1.53782e-006 to 1.53782e-006
Heightened Def Con from 1.53782e-006 to 1.53782e-006
Heightened Def Con from 1.53782e-006 to 1.53782e-006
Heightened Def Con from 1.53782e-006 to 1.53782e-006
Heightened Def Con from 1.53782e-006 to 1.53782e-006
Heightened Def Con from 1.53782e-006 to 1.53782e-006
Heightened Def Con from 1.53782e-006 to 1.53782e-006
Heightened Def Con from 1.53782e-006 ++to 1.53782e-006
Heightened Def Con from 1.53782e-006 to 1.53782e-006
Heightened Def Con from 1.53782e-006 to 1.53782e-006
Heightened Def Con from 1.53782e-006 to 1.53782e-006
Heightened Def Con from 1.53782e-006 to 1.53782e-006
Heightened Def Con from 1.53782e-006 +to 1.53782e-006
Heightened Def Con from 1.53782e-006 +++to 1.53782e-006
Heightened Def Con from 1.53782e-006 +++to 1.53782e-006
Heightened Def Con from 1.53782e-006 to 1.53782e-006
Heightened Def Con from 1.53782e-006 +to 1.53782e-006
Heightened Def Con from 1.53782e-006 ++to 1.53782e-006
Heightened Def Con from 1.53782e-006 to 1.53782e-006
Heightened Def Con from 1.53782e-006 to 1.53782e-006
Heightened Def Con from 1.53782e-006 to 1.53782e-006
Heightened Def Con from 1.53782e-006 to 1.53782e-006
Heightened Def Con from 1.53782e-006 to 1.53782e-006
Heightened Def Con from 1.53782e-006 to 1.53782e-006
Heightened Def Con from 1.53782e-006 +to 1.53782e-006
Heightened Def Con from 1.53782e-006 to 1.53782e-006
Heightened Def Con from 1.53782e-006 to 1.53782e-006
Heightened Def Con from 1.53782e-006 to 1.53782e-006
Heightened Def Con from 1.53782e-006 to 1.53782e-006
Heightened Def Con from 1.53782e-006 to 1.53782e-006
Heightened Def Con from 1.53782e-006 to 1.53782e-006
Heightened Def Con from 1.53782e-006 to 1.53782e-006
Heightened Def Con from 1.53782e-006 +to 1.53782e-006
Heightened Def Con from 1.53782e-006 to 1.53782e-006
Heightened Def Con from 1.53782e-006 to 1.53782e-006
Heightened Def Con from 1.53782e-006 to 1.53782e-006
Heightened Def Con from 1.53782e-006 ++to 1.53782e-006
Heightened Def Con from 1.53782e-006 to 1.53782e-006
Heightened Def Con from 1.53782e-006 +to 1.53782e-006
Heightened Def Con from 1.53782e-006 +to 1.53782e-006
Heightened Def Con from 1.53782e-006 ++++to 1.53782e-006
Heightened Def Con from 1.53782e-006 +to 1.53782e-006
Heightened Def Con from 1.53782e-006 +++to 1.53782e-006
Heightened Def Con from 1.53782e-006 to 1.53782e-006
Heightened Def Con from 1.53782e-006 ++to 1.53782e-006
Heightened Def Con from 1.53782e-006 ++to 1.53782e-006
Heightened Def Con from 1.53782e-006 +to 1.53782e-006
Heightened Def Con from 1.53782e-006 ++to 1.53782e-006
Heightened Def Con from 1.53782e-006 +to 1.53782e-006
Heightened Def Con from 1.53782e-006 ++to 1.53782e-006
Heightened Def Con from 1.53782e-006 +++++to 1.53782e-006
Heightened Def Con from 1.59783e-006 +to 1.59783e-006
Heightened Def Con from 1.59783e-006 to 1.59783e-006
Heightened Def Con from 1.59783e-006 ++++++to 1.59783e-006
Heightened Def Con from 1.59878e-006 to 1.59878e-006
Heightened Def Con from 1.60805e-006 ++++++to 1.60805e-006
Heightened Def Con from 1.60805e-006 to 1.60805e-006
Heightened Def Con from 1.61782e-006 to 1.61782e-006
Heightened Def Con from 1.67783e-006 to 1.67783e-006
Heightened Def Con from 1.67783e-006 ++to 1.67783e-006
Heightened Def Con from 1.67783e-006 ++to 1.67783e-006
Heightened Def Con from 1.67783e-006 to 1.67783e-006
Heightened Def Con from 1.67783e-006 ++to 1.67783e-006
Heightened Def Con from 1.67783e-006 +to 1.67783e-006
Heightened Def Con from 1.67783e-006 +++to 1.67783e-006
Heightened Def Con from 1.67783e-006 to 1.67783e-006
Heightened Def Con from 1.67783e-006 ++++to 1.67783e-006
Heightened Def Con from 1.67783e-006 +to 1.67783e-006
Heightened Def Con from 1.67783e-006 +to 1.67783e-006
Heightened Def Con from 1.67783e-006 to 1.67783e-006
Heightened Def Con from 1.67783e-006 ++++to 1.67783e-006
Heightened Def Con from 1.67783e-006 to 1.67783e-006
Heightened Def Con from 1.67783e-006 ++++to 1.67783e-006
Heightened Def Con from 1.68769e-006 to 1.68769e-006
Heightened Def Con from 1.68769e-006 to 1.68769e-006
Heightened Def Con from 1.68769e-006 to 1.68769e-006
Heightened Def Con from 1.68769e-006 to 1.68769e-006
Heightened Def Con from 1.68769e-006 +to 1.68769e-006
Heightened Def Con from 1.68769e-006 ++to 1.68769e-006
Heightened Def Con from 1.68769e-006 to 1.68769e-006
Heightened Def Con from 1.68769e-006 +to 1.68769e-006
Heightened Def Con from 1.68769e-006 ++to 1.68769e-006
Heightened Def Con from 1.68769e-006 to 1.68769e-006
Heightened Def Con from 1.68769e-006 to 1.68769e-006
Heightened Def Con from 1.68769e-006 to 1.68769e-006
Heightened Def Con from 1.68769e-006 +to 1.68769e-006
Heightened Def Con from 1.68769e-006 to 1.68769e-006
Heightened Def Con from 1.68769e-006 to 1.68769e-006
Heightened Def Con from 1.68769e-006 ++to 1.68769e-006
Heightened Def Con from 1.68769e-006 to 1.68769e-006
Heightened Def Con from 1.68769e-006 +to 1.68769e-006
Heightened Def Con from 1.68769e-006 +to 1.68769e-006
Heightened Def Con from 1.68769e-006 +++++to 1.68769e-006
Heightened Def Con from 1.68769e-006 to 1.68769e-006
Heightened Def Con from 1.68769e-006 to 1.68769e-006
Heightened Def Con from 1.68769e-006 to 1.68769e-006
Heightened Def Con from 1.68769e-006 to 1.68769e-006
Heightened Def Con from 1.68769e-006 ++++++to 1.68769e-006
Heightened Def Con from 1.68769e-006 to 1.68769e-006
Heightened Def Con from 1.68813e-006 to 1.68813e-006
Heightened Def Con from 1.68813e-006 to 1.68813e-006
Heightened Def Con from 1.68813e-006 to 1.68813e-006
Heightened Def Con from 1.68813e-006 to 1.68813e-006
Heightened Def Con from 1.68813e-006 to 1.68813e-006
Heightened Def Con from 1.68813e-006 to 1.68813e-006
Heightened Def Con from 1.68813e-006 to 1.68813e-006
Heightened Def Con from 1.68813e-006 to 1.68813e-006
Heightened Def Con from 1.68813e-006 +++++++to 1.68813e-006
Heightened Def Con from 1.68813e-006 to 1.68813e-006
Heightened Def Con from 1.69877e-006 to 1.69877e-006
Heightened Def Con from 1.7277e-006 to 1.7277e-006
Heightened Def Con from 1.7277e-006 to 1.7277e-006
Heightened Def Con from 1.7277e-006 to 1.7277e-006
Heightened Def Con from 1.7277e-006 to 1.7277e-006
Heightened Def Con from 1.7277e-006 ++++++++to 1.7277e-006
Heightened Def Con from 1.7277e-006 to 1.7277e-006
Heightened Def Con from 1.7677e-006 to 1.7677e-006
Heightened Def Con from 1.7677e-006 ++to 1.7677e-006
Heightened Def Con from 1.7677e-006 +to 1.7677e-006
Heightened Def Con from 1.7677e-006 to 1.7677e-006
Heightened Def Con from 1.7677e-006 +++++++to 1.7677e-006
Heightened Def Con from 1.79783e-006 to 1.79783e-006
Heightened Def Con from 1.79783e-006 to 1.79783e-006
Heightened Def Con from 1.79783e-006 to 1.79783e-006
[...]
Heightened Def Con from 3.83782e-006 +to 3.83782e-006
Heightened Def Con from 3.83782e-006 +to 3.83782e-006
Heightened Def Con from 3.83782e-006 to 3.83782e-006
Heightened Def Con from 3.83782e-006 to 3.83782e-006
Heightened Def Con from 3.83782e-006 to 3.83782e-006
Heightened Def Con from 3.83782e-006 +to 3.83782e-006
Heightened Def Con from 3.83782e-006 to 3.83782e-006
Heightened Def Con from 3.83782e-006 +to 3.83782e-006
Heightened Def Con from 3.83782e-006 +to 3.83782e-006
Heightened Def Con from 3.83782e-006 to 3.83782e-006
Heightened Def Con from 3.83782e-006 +to 3.83782e-006
Heightened Def Con from 3.83782e-006 ++++to 3.83782e-006
Heightened Def Con from 3.83782e-006 to 3.83782e-006
Heightened Def Con from 3.83782e-006 ++++to 3.83782e-006
Heightened Def Con from 3.83782e-006 to 3.83782e-006
Heightened Def Con from 3.83782e-006 +++++to 3.83782e-006
Heightened Def Con from 3.83782e-006 ++to 3.83782e-006
Heightened Def Con from 3.83782e-006 +to 3.83782e-006
Heightened Def Con from 3.83782e-006 to 3.83782e-006
Heightened Def Con from 3.83782e-006 +to 3.83782e-006
Heightened Def Con from 3.83782e-006 ++to 3.83782e-006
Heightened Def Con from 3.83782e-006 ++to 3.83782e-006
Heightened Def Con from 3.83782e-006 +to 3.83782e-006
Heightened Def Con from 3.83782e-006 ++to 3.83782e-006
Heightened Def Con from 3.83782e-006 to 3.83782e-006
Heightened Def Con from 3.83782e-006 to 3.83782e-006
Heightened Def Con from 3.83782e-006 +to 3.83782e-006
Heightened Def Con from 3.83782e-006 +to 3.83782e-006
Heightened Def Con from 3.83782e-006 +++to 3.83782e-006
Heightened Def Con from 3.83782e-006 +to 3.83782e-006
Heightened Def Con from 3.83782e-006 to 3.83782e-006
Heightened Def Con from 3.83782e-006 +to 3.83782e-006
Heightened Def Con from 3.83782e-006 +++to 3.83782e-006
Heightened Def Con from 3.83782e-006 to 3.83782e-006
Heightened Def Con from 3.83782e-006 to 3.83782e-006
Heightened Def Con from 3.83782e-006 ++to 3.83782e-006
Heightened Def Con from 3.83782e-006 ++++to 3.83782e-006
Heightened Def Con from 3.83782e-006 +to 3.83782e-006
Heightened Def Con from 3.83782e-006 to 3.83782e-006
Heightened Def Con from 3.83782e-006 +to 3.83782e-006
Heightened Def Con from 3.83782e-006 +to 3.83782e-006
Heightened Def Con from 3.83782e-006 to 3.83782e-006
Heightened Def Con from 3.83782e-006 to 3.83782e-006
Heightened Def Con from 3.83782e-006 +to 3.83782e-006
Heightened Def Con from 3.83782e-006 +to 3.83782e-006
Heightened Def Con from 3.83782e-006 to 3.83782e-006
Heightened Def Con from 3.83782e-006 to 3.83782e-006
Heightened Def Con from 3.83782e-006 to 3.83782e-006
Heightened Def Con from 3.83782e-006 +to 3.83782e-006
Heightened Def Con from 3.83782e-006 to 3.83782e-006
Heightened Def Con from 3.83782e-006 to 3.83782e-006
Heightened Def Con from 3.83782e-006 to 3.83782e-006
Heightened Def Con from 3.83782e-006 to 3.83782e-006
Heightened Def Con from 3.83782e-006 to 3.83782e-006
Heightened Def Con from 3.83782e-006 +to 3.83782e-006
Heightened Def Con from 3.83782e-006 ++++++to 3.83782e-006
Heightened Def Con from 3.83782e-006 +to 3.83782e-006
Heightened Def Con from 3.83782e-006 ++to 3.83782e-006
Heightened Def Con from 3.83782e-006 ++++to 3.83782e-006
Heightened Def Con from 3.83782e-006 +to 3.83782e-006
Heightened Def Con from 3.83782e-006 +to 3.83782e-006
Heightened Def Con from 3.83782e-006 to 3.83782e-006
Heightened Def Con from 3.83782e-006 ++to 3.83782e-006
Heightened Def Con from 3.83782e-006 +to 3.83782e-006
Heightened Def Con from 3.83782e-006 +to 3.83782e-006
Heightened Def Con from 3.83782e-006 ++to 3.83782e-006
Heightened Def Con from 3.83782e-006 to 3.83782e-006
Heightened Def Con from 3.83782e-006 ++++to 3.83782e-006
Heightened Def Con from 3.83782e-006 to 3.83782e-006
Heightened Def Con from 3.83782e-006 to 3.83782e-006
Heightened Def Con from 3.83782e-006 to 3.83782e-006
Heightened Def Con from 3.83782e-006 to 3.83782e-006
Heightened Def Con from 3.83782e-006 +++++to 3.83782e-006
Heightened Def Con from 3.83782e-006 +++to 3.83782e-006
Heightened Def Con from 3.83782e-006 ++++to 3.83782e-006
Heightened Def Con from 3.83782e-006 +to 3.83782e-006
Heightened Def Con from 3.83782e-006 ++to 3.83782e-006
Heightened Def Con from 3.83782e-006 +to 3.83782e-006
Heightened Def Con from 3.83782e-006 to 3.83782e-006
Heightened Def Con from 3.83782e-006 to 3.83782e-006
Heightened Def Con from 3.83782e-006 to 3.83782e-006
Heightened Def Con from 3.83782e-006 to 3.83782e-006
Heightened Def Con from 3.83782e-006 to 3.83782e-006
Heightened Def Con from 3.83782e-006 +to 3.83782e-006
Heightened Def Con from 3.83782e-006 +++++to 3.83782e-006
Heightened Def Con from 3.83782e-006 +to 3.83782e-006
Heightened Def Con from 3.83782e-006 +to 3.83782e-006
Heightened Def Con from 3.83782e-006 +to 3.83782e-006
Heightened Def Con from 3.83782e-006 to 3.83782e-006
Heightened Def Con from 3.83782e-006 ++to 3.83782e-006
Heightened Def Con from 3.83782e-006 ++++to 3.83782e-006
Heightened Def Con from 3.83782e-006 to 3.83782e-006
Heightened Def Con from 3.83782e-006 +to 3.83782e-006
Heightened Def Con from 3.83782e-006 to 3.83782e-006
Heightened Def Con from 3.83782e-006 +++++to 3.83782e-006
Heightened Def Con from 3.83782e-006 to 3.83782e-006
Heightened Def Con from 3.83782e-006 ++to 3.83782e-006
Heightened Def Con from 3.83782e-006 +to 3.83782e-006
Heightened Def Con from 3.83782e-006 to 3.83782e-006
Heightened Def Con from 3.83782e-006 +to 3.83782e-006
Heightened Def Con from 3.83782e-006 +to 3.83782e-006
Heightened Def Con from 3.83782e-006 +to 3.83782e-006
Heightened Def Con from 3.83782e-006 ++to 3.83782e-006
Heightened Def Con from 3.83782e-006 to 3.83782e-006
Heightened Def Con from 3.83782e-006 to 3.83782e-006
Heightened Def Con from 3.83782e-006 to 3.83782e-006
Heightened Def Con from 3.83782e-006 +to 3.83782e-006
Heightened Def Con from 3.83782e-006 to 3.83782e-006
Heightened Def Con from 3.83782e-006 to 3.83782e-006
Heightened Def Con from 3.83782e-006 ++++++to 3.83782e-006
Heightened Def Con from 3.91782e-006 to 3.91782e-006
Heightened Def Con from 3.91782e-006 +++to 3.91782e-006
Heightened Def Con from 3.91782e-006 to 3.91782e-006
Heightened Def Con from 3.91782e-006 to 3.91782e-006
Heightened Def Con from 3.91782e-006 ++to 3.91782e-006
Heightened Def Con from 3.91782e-006 to 3.91782e-006
Heightened Def Con from 3.91782e-006 ++to 3.91782e-006
Heightened Def Con from 3.91782e-006 ++to 3.91782e-006
Heightened Def Con from 3.91782e-006 +to 3.91782e-006
Heightened Def Con from 3.91782e-006 to 3.91782e-006
Heightened Def Con from 3.91782e-006 ++++to 3.91782e-006
Heightened Def Con from 3.91782e-006 to 3.91782e-006
Heightened Def Con from 3.91782e-006 to 3.91782e-006
Heightened Def Con from 3.91782e-006 ++++to 3.91782e-006
Heightened Def Con from 3.9277e-006 to 3.9277e-006
Heightened Def Con from 3.9277e-006 to 3.9277e-006
Heightened Def Con from 3.9277e-006 +to 3.9277e-006
Heightened Def Con from 3.9277e-006 to 3.9277e-006
Heightened Def Con from 3.9277e-006 to 3.9277e-006
Heightened Def Con from 3.9277e-006 ++to 3.9277e-006
Heightened Def Con from 3.9277e-006 ++to 3.9277e-006
Heightened Def Con from 3.9277e-006 to 3.9277e-006
Heightened Def Con from 3.9277e-006 to 3.9277e-006
Heightened Def Con from 3.9277e-006 ++to 3.9277e-006
Heightened Def Con from 3.9277e-006 to 3.9277e-006
Heightened Def Con from 3.9277e-006 to 3.9277e-006
Heightened Def Con from 3.9277e-006 +++++++++to 3.9277e-006
Heightened Def Con from 3.9277e-006 to 3.9277e-006
Heightened Def Con from 3.9677e-006 to 3.9677e-006
Heightened Def Con from 3.9677e-006 to 3.9677e-006
Heightened Def Con from 3.9677e-006 to 3.9677e-006
Heightened Def Con from 3.9677e-006 ++to 3.9677e-006
Heightened Def Con from 3.9677e-006 +++++to 3.9677e-006
Heightened Def Con from 3.9677e-006 to 3.9677e-006
Heightened Def Con from 3.9677e-006 to 3.9677e-006
Heightened Def Con from 3.9677e-006 to 3.9677e-006
Heightened Def Con from 3.9677e-006 to 3.9677e-006
Heightened Def Con from 3.9677e-006 ++++++to 3.9677e-006
Heightened Def Con from 3.9677e-006 to 3.9677e-006
Heightened Def Con from 3.97783e-006 to 3.97783e-006
Heightened Def Con from 4.01782e-006 to 4.01782e-006
Heightened Def Con from 4.01782e-006 ++++to 4.01782e-006
Heightened Def Con from 4.0277e-006 to 4.0277e-006
Heightened Def Con from 4.0277e-006 ++++to 4.0277e-006
Heightened Def Con from 4.0277e-006 to 4.0277e-006
Heightened Def Con from 4.0277e-006 to 4.0277e-006
Heightened Def Con from 4.0277e-006 +to 4.0277e-006
Heightened Def Con from 4.0277e-006 ++to 4.0277e-006
Heightened Def Con from 4.0277e-006 to 4.0277e-006
Heightened Def Con from 4.0277e-006 to 4.0277e-006
Heightened Def Con from 4.0277e-006 to 4.0277e-006
Heightened Def Con from 4.0277e-006 to 4.0277e-006
Heightened Def Con from 4.0277e-006 to 4.0277e-006
Heightened Def Con from 4.0277e-006 to 4.0277e-006
Heightened Def Con from 4.0277e-006 ++++++to 4.0277e-006
Heightened Def Con from 4.0277e-006 +to 4.0277e-006
Heightened Def Con from 4.0277e-006 +++++++++to 4.0277e-006
Heightened Def Con from 4.0277e-006 to 4.0277e-006
Heightened Def Con from 4.0277e-006 +++++to 4.0277e-006
Heightened Def Con from 4.0277e-006 to 4.0277e-006
Heightened Def Con from 4.0277e-006 to 4.0277e-006
Heightened Def Con from 4.0277e-006 to 4.0277e-006
Heightened Def Con from 4.0277e-006 to 4.0277e-006
Heightened Def Con from 4.0277e-006 to 4.0277e-006
Heightened Def Con from 4.0277e-006 ++++to 4.0277e-006
Heightened Def Con from 4.0277e-006 to 4.0277e-006
Heightened Def Con from 4.0277e-006 to 4.0277e-006
Heightened Def Con from 4.0277e-006 +to 4.0277e-006
Heightened Def Con from 4.0277e-006 ++++++to 4.0277e-006
Heightened Def Con from 4.0277e-006 +to 4.0277e-006
Heightened Def Con from 4.0277e-006 +to 4.0277e-006
Heightened Def Con from 4.0277e-006 to 4.0277e-006
Heightened Def Con from 4.0277e-006 to 4.0277e-006
Heightened Def Con from 4.0277e-006 ++to 4.0277e-006
Heightened Def Con from 4.0277e-006 to 4.0277e-006
Heightened Def Con from 4.0277e-006 to 4.0277e-006
Heightened Def Con from 4.0277e-006 +to 4.0277e-006
Heightened Def Con from 4.0277e-006 +to 4.0277e-006
Heightened Def Con from 4.0277e-006 to 4.0277e-006
Heightened Def Con from 4.0277e-006 +to 4.0277e-006
Heightened Def Con from 4.0277e-006 +to 4.0277e-006
Heightened Def Con from 4.0277e-006 +++++++++to 4.0277e-006
Heightened Def Con from 4.0277e-006 to 4.0277e-006
Heightened Def Con from 4.0677e-006 to 4.0677e-006
Heightened Def Con from 4.0677e-006 to 4.0677e-006
Heightened Def Con from 4.0677e-006 +++to 4.0677e-006
Heightened Def Con from 4.0677e-006 to 4.0677e-006
Heightened Def Con from 4.0677e-006 to 4.0677e-006
Heightened Def Con from 4.0677e-006 to 4.0677e-006
Heightened Def Con from 4.0677e-006 to 4.0677e-006
Heightened Def Con from 4.0677e-006 to 4.0677e-006
Heightened Def Con from 4.0677e-006 +to 4.0677e-006
Heightened Def Con from 4.0677e-006 +to 4.0677e-006
Heightened Def Con from 4.0677e-006 +to 4.0677e-006
Heightened Def Con from 4.0677e-006 to 4.0677e-006
Heightened Def Con from 4.0677e-006 to 4.0677e-006
Heightened Def Con from 4.0677e-006 +to 4.0677e-006
Heightened Def Con from 4.0677e-006 to 4.0677e-006
Heightened Def Con from 4.0677e-006 +to 4.0677e-006
Heightened Def Con from 4.0677e-006 to 4.0677e-006
Heightened Def Con from 4.0677e-006 to 4.0677e-006
Heightened Def Con from 4.0677e-006 to 4.0677e-006
Heightened Def Con from 4.0677e-006 +to 4.0677e-006
Heightened Def Con from 4.0677e-006 ++++to 4.0677e-006
Heightened Def Con from 4.0677e-006 to 4.0677e-006
Heightened Def Con from 4.09783e-006 to 4.09783e-006
Heightened Def Con from 4.09783e-006 to 4.09783e-006
Heightened Def Con from 4.09783e-006 to 4.09783e-006
Heightened Def Con from 4.09783e-006 to 4.09783e-006
Heightened Def Con from 4.09783e-006 to 4.09783e-006
Heightened Def Con from 4.09783e-006 to 4.09783e-006
Heightened Def Con from 4.09783e-006 to 4.09783e-006
Heightened Def Con from 4.09783e-006 +to 4.09783e-006
Heightened Def Con from 4.09783e-006 to 4.09783e-006
Heightened Def Con from 4.09783e-006 to 4.09783e-006
Heightened Def Con from 4.09783e-006 to 4.09783e-006
Heightened Def Con from 4.09783e-006 to 4.09783e-006
Heightened Def Con from 4.09783e-006 to 4.09783e-006
Heightened Def Con from 4.09783e-006 +to 4.09783e-006
Heightened Def Con from 4.09783e-006 to 4.09783e-006
Heightened Def Con from 4.09783e-006 to 4.09783e-006
Heightened Def Con from 4.09783e-006 ++to 4.09783e-006
Heightened Def Con from 4.09783e-006 +to 4.09783e-006
Heightened Def Con from 4.09783e-006 +to 4.09783e-006
Heightened Def Con from 4.09783e-006 to 4.09783e-006
Heightened Def Con from 4.09783e-006 to 4.09783e-006
Heightened Def Con from 4.09783e-006 ++++to 4.09783e-006
Heightened Def Con from 4.09783e-006 to 4.09783e-006
Heightened Def Con from 4.1277e-006 to 4.1277e-006
Heightened Def Con from 4.1277e-006 to 4.1277e-006
Heightened Def Con from 4.1277e-006 to 4.1277e-006
Heightened Def Con from 4.1277e-006 +++to 4.1277e-006
Heightened Def Con from 4.1277e-006 to 4.1277e-006
Heightened Def Con from 4.1277e-006 to 4.1277e-006
Heightened Def Con from 4.1277e-006 to 4.1277e-006
Heightened Def Con from 4.1277e-006 to 4.1277e-006
Heightened Def Con from 4.1277e-006 to 4.1277e-006
Heightened Def Con from 4.1277e-006 ++to 4.1277e-006
Heightened Def Con from 4.1277e-006 to 4.1277e-006
Heightened Def Con from 4.1277e-006 to 4.1277e-006
Heightened Def Con from 4.1277e-006 ++to 4.1277e-006
Heightened Def Con from 4.1277e-006 to 4.1277e-006
Heightened Def Con from 4.1277e-006 to 4.1277e-006
Heightened Def Con from 4.1277e-006 to 4.1277e-006
Heightened Def Con from 4.1277e-006 +to 4.1277e-006
Heightened Def Con from 4.1277e-006 +to 4.1277e-006
Heightened Def Con from 4.1277e-006 +to 4.1277e-006
Heightened Def Con from 4.1277e-006 to 4.1277e-006
Heightened Def Con from 4.1277e-006 +to 4.1277e-006
Heightened Def Con from 4.1277e-006 +to 4.1277e-006
Heightened Def Con from 4.1277e-006 +to 4.1277e-006
Heightened Def Con from 4.1277e-006 to 4.1277e-006
Heightened Def Con from 4.1277e-006 to 4.1277e-006
Heightened Def Con from 4.1277e-006 to 4.1277e-006
Heightened Def Con from 4.1277e-006 to 4.1277e-006
Heightened Def Con from 4.1277e-006 to 4.1277e-006
Heightened Def Con from 4.1277e-006 to 4.1277e-006
Heightened Def Con from 4.1277e-006 to 4.1277e-006
Heightened Def Con from 4.1277e-006 to 4.1277e-006
Heightened Def Con from 4.1277e-006 to 4.1277e-006
Heightened Def Con from 4.1277e-006 to 4.1277e-006
Heightened Def Con from 4.1277e-006 to 4.1277e-006
Heightened Def Con from 4.1277e-006 ++++++to 4.1277e-006
Heightened Def Con from 4.1277e-006 to 4.1277e-006
Heightened Def Con from 4.1277e-006 to 4.1277e-006
Heightened Def Con from 4.1277e-006 to 4.1277e-006
Heightened Def Con from 4.1277e-006 to 4.1277e-006
Heightened Def Con from 4.1277e-006 +to 4.1277e-006
Heightened Def Con from 4.1277e-006 to 4.1277e-006
Heightened Def Con from 4.1277e-006 to 4.1277e-006
Heightened Def Con from 4.1277e-006 to 4.1277e-006
Heightened Def Con from 4.1277e-006 to 4.1277e-006
Heightened Def Con from 4.1277e-006 to 4.1277e-006
Heightened Def Con from 4.1277e-006 +to 4.1277e-006
Heightened Def Con from 4.1277e-006 +to 4.1277e-006
Heightened Def Con from 4.1277e-006 to 4.1277e-006
Heightened Def Con from 4.1277e-006 to 4.1277e-006
Heightened Def Con from 4.1277e-006 to 4.1277e-006
Heightened Def Con from 4.1277e-006 ++++to 4.1277e-006
Heightened Def Con from 4.1277e-006 +++to 4.1277e-006
Heightened Def Con from 4.1277e-006 to 4.1277e-006
Heightened Def Con from 4.1277e-006 +++to 4.1277e-006
Heightened Def Con from 4.1277e-006 +++++to 4.1277e-006
Heightened Def Con from 4.1277e-006 to 4.1277e-006
Heightened Def Con from 4.1277e-006 to 4.1277e-006
Heightened Def Con from 4.1277e-006 to 4.1277e-006
Heightened Def Con from 4.1277e-006 ++++to 4.1277e-006
Heightened Def Con from 4.1277e-006 to 4.1277e-006
Heightened Def Con from 4.1277e-006 +to 4.1277e-006
Heightened Def Con from 4.1277e-006 to 4.1277e-006
Heightened Def Con from 4.1277e-006 +++to 4.1277e-006
Heightened Def Con from 4.1277e-006 +++++to 4.1277e-006
Heightened Def Con from 4.1277e-006 to 4.1277e-006
Heightened Def Con from 4.1277e-006 +to 4.1277e-006
Heightened Def Con from 4.1277e-006 ++to 4.1277e-006
Heightened Def Con from 4.1277e-006 to 4.1277e-006
Heightened Def Con from 4.1277e-006 +to 4.1277e-006
Heightened Def Con from 4.1277e-006 +to 4.1277e-006
Heightened Def Con from 4.1277e-006 +to 4.1277e-006
Heightened Def Con from 4.1277e-006 +to 4.1277e-006
Heightened Def Con from 4.1277e-006 to 4.1277e-006
Heightened Def Con from 4.1277e-006 to 4.1277e-006
Heightened Def Con from 4.1277e-006 to 4.1277e-006
Heightened Def Con from 4.1277e-006 +++to 4.1277e-006
Heightened Def Con from 4.1277e-006 +++to 4.1277e-006
Heightened Def Con from 4.1277e-006 to 4.1277e-006
Heightened Def Con from 4.1277e-006 to 4.1277e-006
Heightened Def Con from 4.1277e-006 to 4.1277e-006
Heightened Def Con from 4.1277e-006 +to 4.1277e-006
Heightened Def Con from 4.1277e-006 ++++to 4.1277e-006
Heightened Def Con from 4.1277e-006 +to 4.1277e-006
Heightened Def Con from 4.1277e-006 +to 4.1277e-006
Heightened Def Con from 4.1277e-006 +++to 4.1277e-006
Heightened Def Con from 4.1277e-006 +to 4.1277e-006
Heightened Def Con from 4.1277e-006 to 4.1277e-006
Heightened Def Con from 4.1277e-006 to 4.1277e-006
Heightened Def Con from 4.1277e-006 to 4.1277e-006
Heightened Def Con from 4.1277e-006 to 4.1277e-006
Heightened Def Con from 4.1277e-006 ++++to 4.1277e-006
Heightened Def Con from 4.1277e-006 to 4.1277e-006
Heightened Def Con from 4.1277e-006 to 4.1277e-006
Heightened Def Con from 4.1277e-006 to 4.1277e-006
Heightened Def Con from 4.1277e-006 +to 4.1277e-006
Heightened Def Con from 4.1277e-006 ++++to 4.1277e-006
Heightened Def Con from 4.1277e-006 +to 4.1277e-006
Heightened Def Con from 4.1277e-006 ++to 4.1277e-006
Heightened Def Con from 4.1277e-006 to 4.1277e-006
Heightened Def Con from 4.1277e-006 to 4.1277e-006
Heightened Def Con from 4.1277e-006 +to 4.1277e-006
Heightened Def Con from 4.1277e-006 to 4.1277e-006
Heightened Def Con from 4.1277e-006 to 4.1277e-006
Heightened Def Con from 4.1277e-006 ++++++++++to 4.1277e-006
Heightened Def Con from 4.1677e-006 to 4.1677e-006
Heightened Def Con from 4.19783e-006 to 4.19783e-006
Heightened Def Con from 4.19783e-006 to 4.19783e-006
Heightened Def Con from 4.19783e-006 to 4.19783e-006
Heightened Def Con from 4.19783e-006 to 4.19783e-006
Heightened Def Con from 4.19783e-006 to 4.19783e-006
Heightened Def Con from 4.19783e-006 to 4.19783e-006
Heightened Def Con from 4.19783e-006 to 4.19783e-006
Heightened Def Con from 4.19783e-006 +++to 4.19783e-006
Heightened Def Con from 4.19783e-006 to 4.19783e-006
Heightened Def Con from 4.19783e-006 ++to 4.19783e-006
Heightened Def Con from 4.19783e-006 ++to 4.19783e-006
Heightened Def Con from 4.19783e-006 +to 4.19783e-006
Heightened Def Con from 4.19783e-006 to 4.19783e-006
Heightened Def Con from 4.19783e-006 to 4.19783e-006
Heightened Def Con from 4.19783e-006 +to 4.19783e-006
Heightened Def Con from 4.19783e-006 ++to 4.19783e-006
Heightened Def Con from 4.19783e-006 +++to 4.19783e-006
Heightened Def Con from 4.19783e-006 to 4.19783e-006
Heightened Def Con from 4.19783e-006 +to 4.19783e-006
Heightened Def Con from 4.19783e-006 to 4.19783e-006
Heightened Def Con from 4.19783e-006 +++to 4.19783e-006
Heightened Def Con from 4.19783e-006 to 4.19783e-006
Heightened Def Con from 4.19783e-006 ++to 4.19783e-006
Heightened Def Con from 4.19783e-006 ++to 4.19783e-006
Heightened Def Con from 4.19783e-006 to 4.19783e-006
Heightened Def Con from 4.19783e-006 ++++to 4.19783e-006

Date: Thu Jun 06 08:47:31 2024
Total elapsed time: 14.965 seconds.

tnom = 27
temp = 27
method = trap
totiter = 1118547
traniter = 1113506
tranpoints = 128629
accept = 42778
rejected = 92902
matrix size = 95
fillins = 88
solver = Normal
Thread vector: 9.6/7.1[4] 3.6/3.7[1] 6.2/5.1[4] 0.4/1.7[1]  2592/500
Matrix Compiler1: 7.48 KB object code size  2.3/1.0/[0.4]
Matrix Compiler2: 9.21 KB object code size  1.5/1.6/[0.5]

