Circuit: * Z:\home\ostoja\Elektronika\Projekti\DP_5V\simulacije\910_offset_calibration.asc

WARNING: Node N003 is floating.
WARNING: Node N004 is floating.
WARNING: Node N005 is floating.

WARNING: Less than two connections to node 2.5V.  This node is used by V1.
WARNING: Less than two connections to node -2.5V.  This node is used by V2.
WARNING: Less than two connections to node 9V.  This node is used by V5.
WARNING: Less than two connections to node -9V.  This node is used by V6.
Direct Newton iteration for .op point succeeded.
.step x=0.1
.step x=0.2
.step x=0.3
.step x=0.4
.step x=0.5
.step x=0.6
.step x=0.7
.step x=0.8
.step x=0.9

Date: Sun Jun 16 09:12:01 2024
Total elapsed time: 0.820 seconds.

tnom = 27
temp = 27
method = trap
totiter = 2060
traniter = 2034
tranpoints = 1018
accept = 1018
rejected = 0
matrix size = 30
fillins = 5
solver = Normal
Matrix Compiler1:      77 opcodes  0.3/[0.2]/0.3
Matrix Compiler2: off
