Circuit: * Z:\home\ostoja\Elektronika\DS100M06V_linear\simulacije\Draft1.asc

Direct Newton iteration for .op point succeeded.

Date: Thu Oct 31 08:44:47 2024
Total elapsed time: 0.062 seconds.

tnom = 27
temp = 27
method = modified trap
totiter = 7773
traniter = 7766
tranpoints = 3881
accept = 2420
rejected = 1461
matrix size = 13
fillins = 0
solver = Normal
Matrix Compiler1:      37 opcodes  0.2/[0.1]/0.2
Matrix Compiler2: 913 bytes object code size  0.1/0.2/[0.1]

