Circuit: * Z:\home\ostoja\Elektronika\Projekti\DP_5V\simulacije\Draft1.asc

WARNING: Less than two connections to node N002.  This node is used by R:U1:OUT1:OUT.
WARNING: Less than two connections to node N004.  This node is used by R:U1:OUT2:OUT.
WARNING: Less than two connections to node N006.  This node is used by R:U1:OUT3:OUT.
WARNING: Less than two connections to node N007.  This node is used by R:U1:OUT4:OUT.
WARNING: Less than two connections to node N008.  This node is used by R:U1:OUT5:OUT.
WARNING: Less than two connections to node N009.  This node is used by R:U1:OUT6:OUT.
WARNING: Less than two connections to node N010.  This node is used by R:U1:OUT7:OUT.
WARNING: Less than two connections to node N011.  This node is used by R:U1:OUT8:OUT.
Direct Newton iteration for .op point succeeded.
Ignoring empty pin current: Ix(u1:vcc)
Ignoring empty pin current: Ix(u1:vcc)

Date: Mon Jun 17 23:42:37 2024
Total elapsed time: 0.124 seconds.

tnom = 27
temp = 27
method = trap
totiter = 3298
traniter = 3289
tranpoints = 1557
accept = 1441
rejected = 116
matrix size = 78
fillins = 0
solver = Normal
Matrix Compiler1: 1.97 KB object code size  0.4/0.3/[0.2]
Matrix Compiler2: 3.76 KB object code size  0.3/0.6/[0.2]

